#	copyright 2023 drugdesign.org
#	Creation time:	2024-01-10T22:35:25Z

@<TRIPOS>MOLECULE
nu1085
   23    25     0 0 0
SMALL
USER_CHARGES


@<TRIPOS>ATOM
      1 C1           40.679001   22.662001   21.837000 C.2      1 SUBUNIT    0.0957
      2 N2           39.928001   22.868999   20.729000 N.2      1 SUBUNIT   -0.2336
      3 C3           38.653000   22.426001   20.947001 C.2      1 SUBUNIT    0.1178
      4 N4           38.603001   21.924000   22.236000 N.pl3    1 SUBUNIT   -0.2407
      5 C5           39.831001   22.056999   22.802000 C.2      1 SUBUNIT    0.0470
      6 C6           40.360001   21.732000   24.048000 C.2      1 SUBUNIT    0.0225
      7 C7           42.033001   22.936001   22.125999 C.2      1 SUBUNIT    0.0642
      8 C8           37.570999   22.507000   19.891001 C.2      1 SUBUNIT    0.0119
      9 C9           42.549000   22.598000   23.389999 C.2      1 SUBUNIT    0.0158
     10 C10          41.708000   22.000999   24.336000 C.2      1 SUBUNIT    0.0026
     11 C11          42.886002   23.584999   21.152000 C.2      1 SUBUNIT    0.2426
     12 N12          42.408001   23.959999   19.952999 N.am     1 SUBUNIT   -0.3250
     13 O13          44.063999   23.806999   21.410000 O.2      1 SUBUNIT   -0.2721
     14 C14          37.937000   22.599001   18.534000 C.2      1 SUBUNIT    0.0139
     15 C15          36.206001   22.528999   20.240000 C.2      1 SUBUNIT    0.0139
     16 C16          36.945999   22.719000   17.548000 C.2      1 SUBUNIT    0.0337
     17 C17          35.588001   22.747000   17.917999 C.2      1 SUBUNIT    0.0713
     18 C18          35.206001   22.650999   19.260000 C.2      1 SUBUNIT    0.0337
     19 H19          37.788300   21.524799   22.682100 H        1 SUBUNIT    0.1359
     20 H20          41.436298   23.781200   19.738501 H        1 SUBUNIT    0.1458
     21 H21          43.009300   24.412600   19.277901 H        1 SUBUNIT    0.1458
     22 O22          34.613701   22.871700   16.936399 O.3      1 SUBUNIT   -0.3609
     23 H23          33.761200   22.869600   17.403299 H        1 SUBUNIT    0.2182
@<TRIPOS>BOND
     1    1    2 1
     2    1    5 2
     3    1    7 1
     4    2    3 2
     5    3    4 1
     6    3    8 1
     7    4    5 1
     8    4   19 1
     9    5    6 1
    10    6   10 2
    11    7    9 2
    12    7   11 1
    13    8   14 1
    14    8   15 2
    15    9   10 1
    16   11   12 1
    17   11   13 2
    18   12   20 1
    19   12   21 1
    20   14   16 2
    21   15   18 1
    22   16   17 1
    23   17   18 2
    24   17   22 1
    25   22   23 1
@<SCITEGIC>ATOM_PROPERTY
Formal Charge
SciTegic.value.StringValue
1 0
2 0
3 0
4 0
5 0
6 0
7 0
8 0
9 0
10 0
11 0
12 0
13 0
14 0
15 0
16 0
17 0
18 0
19 0
20 0
21 0
22 0
23 0

@<SCITEGIC>ATOM_PROPERTY
pdb_tempFactor
SciTegic.value.DoubleValue
1 0.00
2 0.00
3 0.00
4 0.00
5 0.00
6 0.00
7 0.00
8 0.00
9 0.00
10 0.00
11 0.00
12 0.00
13 0.00
14 0.00
15 0.00
16 0.00
17 0.00
18 0.00
19 0.00
20 0.00
21 0.00
22 0.00
23 0.00

@<SCITEGIC>ATOM_PROPERTY
pdb_occupancy
SciTegic.value.DoubleValue
1 1.00
2 1.00
3 1.00
4 1.00
5 1.00
6 1.00
7 1.00
8 1.00
9 1.00
10 1.00
11 1.00
12 1.00
13 1.00
14 1.00
15 1.00
16 1.00
17 1.00
18 1.00
19 1.00
20 1.00
21 1.00
22 1.00
23 1.00

#	copyright 2023 drugdesign.org
#	Creation time:	2024-01-10T22:35:25Z

@<TRIPOS>MOLECULE
compound13
   16    18     0 0 0
SMALL
USER_CHARGES


@<TRIPOS>ATOM
      1 C1           40.036903   21.784332   24.230434 C.2      1 SUBUNIT   -0.0347
      2 C2           41.376102   22.046331   24.517035 C.2      1 SUBUNIT   -0.0592
      3 C3           42.201603   22.646132   23.562534 C.2      1 SUBUNIT   -0.0479
      4 C4           41.719002   23.017530   22.301235 C.2      1 SUBUNIT    0.0578
      5 C5           39.570202   22.147430   22.974234 C.2      1 SUBUNIT    0.0843
      6 C6           40.380802   22.758131   22.023233 C.2      1 SUBUNIT    0.0617
      7 N7           39.579704   22.950830   20.971834 N.pl3    1 SUBUNIT   -0.2244
      8 C8           38.381104   22.396231   21.246235 C.2      1 SUBUNIT    0.1206
      9 N9           38.354004   21.974432   22.461735 N.2      1 SUBUNIT   -0.2342
     10 C10          42.677002   23.619831   21.317335 C.2      1 SUBUNIT    0.2447
     11 N11          42.253601   24.432131   20.282835 N.am     1 SUBUNIT   -0.3100
     12 O12          43.869102   23.405731   21.430134 O.2      1 SUBUNIT   -0.2718
     13 C13          40.886501   24.868931   20.082035 C.3      1 SUBUNIT    0.0249
     14 H14          43.033104   24.767132   19.715134 H        1 SUBUNIT    0.1497
     15 C15          39.917603   23.713331   19.790134 C.3      1 SUBUNIT    0.0253
     16 C23          37.169304   22.334532   20.402235 C.3      1 SUBUNIT    0.0119
@<TRIPOS>BOND
     1    1    2 2
     2    1    5 1
     3    2    3 1
     4    3    4 2
     5    4    6 1
     6    4   10 1
     7    5    6 2
     8    5    9 1
     9    6    7 1
    10    7    8 1
    11    7   15 1
    12    8    9 2
    13    8   16 1
    14   10   11 1
    15   10   12 2
    16   11   13 1
    17   11   14 1
    18   13   15 1
@<SCITEGIC>ATOM_PROPERTY
Formal Charge
SciTegic.value.StringValue
1 0
2 0
3 0
4 0
5 0
6 0
7 0
8 0
9 0
10 0
11 0
12 0
13 0
14 0
15 0
16 0

@<SCITEGIC>ATOM_PROPERTY
pdb_tempFactor
SciTegic.value.DoubleValue
1 0.00
2 0.00
3 0.00
4 0.00
5 0.00
6 0.00
7 0.00
8 0.00
9 0.00
10 0.00
11 0.00
12 0.00
13 0.00
14 0.00
15 0.00
16 0.00

@<SCITEGIC>ATOM_PROPERTY
pdb_occupancy
SciTegic.value.DoubleValue
1 1.00
2 1.00
3 1.00
4 1.00
5 1.00
6 1.00
7 1.00
8 1.00
9 1.00
10 1.00
11 1.00
12 1.00
13 1.00
14 1.00
15 1.00
16 1.00

