#	copyright 2023 drugdesign.org
#	Creation time:	2024-01-10T22:31:22Z

@<TRIPOS>MOLECULE
cime_tria_sup1.sd
   34    34     0 0 0
SMALL
USER_CHARGES


@<TRIPOS>ATOM
      1 S1           -0.941100    5.625000    0.435800 S.3      1 SUBUNIT   -0.1541
      2 N2           -2.294100    1.369600    2.152400 N.pl3    1 SUBUNIT   -0.2516
      3 N3           -0.564400    2.310100    1.187700 N.2      1 SUBUNIT   -0.2470
      4 N4            2.865700    4.187800   -0.028300 N.pl3    1 SUBUNIT   -0.2457
      5 N5            2.205100    2.029500    0.430200 N.pl3    1 SUBUNIT    0.2755
      6 N6            4.439000    2.490300    0.409100 N.pl3    1 SUBUNIT   -0.0019
      7 N7            6.370300    3.863700   -0.287000 N.1      1 SUBUNIT   -0.1788
      8 C8           -0.968100    1.382100    2.018000 C.2      1 SUBUNIT    0.0728
      9 C9           -1.725200    2.944300    0.776800 C.2      1 SUBUNIT    0.0652
     10 C10          -2.810600    2.364600    1.361600 C.2      1 SUBUNIT    0.0161
     11 C11          -4.270800    2.594700    1.231600 C.3      1 SUBUNIT   -0.0275
     12 C12          -1.668800    4.073800   -0.195500 C.3      1 SUBUNIT    0.0372
     13 C13           0.755900    5.136900    0.851600 C.3      1 SUBUNIT    0.0068
     14 C14           1.530700    4.679700   -0.356600 C.3      1 SUBUNIT    0.0132
     15 C15           3.173200    2.924100    0.256300 C.cat    1 SUBUNIT    0.2162
     16 C16           2.435000    0.606600    0.557200 C.3      1 SUBUNIT    0.0572
     17 C17           5.427200    3.278400    0.029900 C.1      1 SUBUNIT    0.1583
     18 H18          -2.686300    0.852600    2.620500 H        1 SUBUNIT    0.1349
     19 H19          -0.408500    0.768900    2.456500 H        1 SUBUNIT    0.0976
     20 H20           3.462500    4.727400   -0.060200 H        1 SUBUNIT    0.1325
     21 H21           1.389100    2.308800    0.536500 H        1 SUBUNIT    0.2759
     22 H22          -4.431900    3.318500    0.736700 H        1 SUBUNIT    0.0290
     23 H23          -4.637600    2.790000    2.133900 H        1 SUBUNIT    0.0290
     24 H24          -4.771500    1.819100    0.932000 H        1 SUBUNIT    0.0290
     25 H25          -1.182400    3.794500   -1.000800 H        1 SUBUNIT    0.0447
     26 H26          -2.532600    4.324800   -0.446200 H        1 SUBUNIT    0.0447
     27 H27           0.735100    4.375800    1.578100 H        1 SUBUNIT    0.0394
     28 H28           1.178400    5.947200    1.227400 H        1 SUBUNIT    0.0394
     29 H29           1.608000    5.421500   -0.973000 H        1 SUBUNIT    0.0442
     30 H30           1.025000    3.946200   -0.842500 H        1 SUBUNIT    0.0442
     31 H31           1.543800    0.166600    0.339500 H        1 SUBUNIT    0.0679
     32 H32           2.733800    0.383900    1.265100 H        1 SUBUNIT    0.0679
     33 H33           3.032000    0.291700   -0.115500 H        1 SUBUNIT    0.0679
     34 H67           4.626122    1.589825    0.801695 H        1 SUBUNIT    0.0000
@<TRIPOS>BOND
     1    1   12 1
     2    1   13 1
     3    2    8 1
     4    2   10 1
     5    2   18 1
     6    3    8 2
     7    3    9 1
     8    4   14 1
     9    4   15 1
    10    4   20 1
    11    5   15 2
    12    5   16 1
    13    5   21 1
    14    6   15 1
    15    6   17 1
    16    7   17 3
    17    8   19 1
    18    9   10 2
    19    9   12 1
    20   10   11 1
    21   11   22 1
    22   11   23 1
    23   11   24 1
    24   12   25 1
    25   12   26 1
    26   13   14 1
    27   13   27 1
    28   13   28 1
    29   14   29 1
    30   14   30 1
    31   16   31 1
    32   16   32 1
    33   16   33 1
    34    6   34 1
@<SCITEGIC>ATOM_PROPERTY
Formal Charge
SciTegic.value.StringValue
1 0
2 0
3 0
4 0
5 0
6 0
7 0
8 0
9 0
10 0
11 0
12 0
13 0
14 0
15 0
16 0
17 0
18 0
19 0
20 0
21 0
22 0
23 0
24 0
25 0
26 0
27 0
28 0
29 0
30 0
31 0
32 0
33 0
34 0

@<SCITEGIC>ATOM_PROPERTY
pdb_tempFactor
SciTegic.value.DoubleValue
1 0.00
2 0.00
3 0.00
4 0.00
5 0.00
6 0.00
7 0.00
8 0.00
9 0.00
10 0.00
11 0.00
12 0.00
13 0.00
14 0.00
15 0.00
16 0.00
17 0.00
18 0.00
19 0.00
20 0.00
21 0.00
22 0.00
23 0.00
24 0.00
25 0.00
26 0.00
27 0.00
28 0.00
29 0.00
30 0.00
31 0.00
32 0.00
33 0.00
34 0.00

@<SCITEGIC>ATOM_PROPERTY
pdb_occupancy
SciTegic.value.DoubleValue
1 1.00
2 1.00
3 1.00
4 1.00
5 1.00
6 1.00
7 1.00
8 1.00
9 1.00
10 1.00
11 1.00
12 1.00
13 1.00
14 1.00
15 1.00
16 1.00
17 1.00
18 1.00
19 1.00
20 1.00
21 1.00
22 1.00
23 1.00
24 1.00
25 1.00
26 1.00
27 1.00
28 1.00
29 1.00
30 1.00
31 1.00
32 1.00
33 1.00
34 1.00

#	copyright 2023 drugdesign.org
#	Creation time:	2024-01-10T22:31:22Z

@<TRIPOS>MOLECULE
cime_tria_sup1.sd
   21    22     0 0 0
SMALL
USER_CHARGES


@<TRIPOS>ATOM
      1 C1           -0.371200    2.688600    1.092000 C.2      1 SUBUNIT    0.0390
      2 C2           -1.362800    3.673300    0.929300 C.2      1 SUBUNIT    0.0398
      3 N3           -2.692200    3.400800    1.299800 N.2      1 SUBUNIT   -0.2444
      4 C4           -3.030200    2.143500    1.833100 C.2      1 SUBUNIT    0.1026
      5 C5           -2.038700    1.158800    1.995800 C.2      1 SUBUNIT   -0.0246
      6 C6           -0.709200    1.431300    1.625200 C.2      1 SUBUNIT   -0.0464
      7 H7           -1.097100    4.661000    0.510300 H        1 SUBUNIT    0.0848
      8 H8           -2.304300    0.171200    2.414700 H        1 SUBUNIT    0.0656
      9 H9            0.069800    0.657700    1.753100 H        1 SUBUNIT    0.0632
     10 N10           1.253800    4.152000    0.221300 N.2      1 SUBUNIT   -0.1742
     11 C11           0.863500    2.977500    0.734600 C.2      1 SUBUNIT    0.1776
     12 N12           2.048700    2.110700    0.814400 N.2      1 SUBUNIT   -0.2024
     13 C13           3.092800    2.807000    0.345100 C.2      1 SUBUNIT    0.1714
     14 N14           2.724200    4.198100   -0.094300 N.pl3    1 SUBUNIT   -0.1535
     15 N15           4.368900    2.348000    0.254400 N.pl3    1 SUBUNIT   -0.2756
     16 H16           4.414600    1.294000    0.634300 H        1 SUBUNIT    0.1268
     17 N17          -4.314700    1.880300    2.191100 N.pl3    1 SUBUNIT   -0.2869
     18 H18           3.292900    4.939900   -0.483900 H        1 SUBUNIT    0.1588
     19 H19           5.111100    2.931500   -0.111800 H        1 SUBUNIT    0.1268
     20 H20          -5.013100    2.602700    2.065800 H        1 SUBUNIT    0.1258
     21 H21          -4.568500    0.978600    2.575800 H        1 SUBUNIT    0.1258
@<TRIPOS>BOND
     1    1    2 2
     2    1    6 1
     3    1   11 1
     4    2    3 1
     5    2    7 1
     6    3    4 2
     7    4    5 1
     8    4   17 1
     9    5    6 2
    10    5    8 1
    11    6    9 1
    12   10   11 2
    13   10   14 1
    14   11   12 1
    15   12   13 2
    16   13   14 1
    17   13   15 1
    18   14   18 1
    19   15   16 1
    20   15   19 1
    21   17   20 1
    22   17   21 1
@<SCITEGIC>ATOM_PROPERTY
Formal Charge
SciTegic.value.StringValue
1 0
2 0
3 0
4 0
5 0
6 0
7 0
8 0
9 0
10 0
11 0
12 0
13 0
14 0
15 0
16 0
17 0
18 0
19 0
20 0
21 0

@<SCITEGIC>ATOM_PROPERTY
pdb_tempFactor
SciTegic.value.DoubleValue
1 0.00
2 0.00
3 0.00
4 0.00
5 0.00
6 0.00
7 0.00
8 0.00
9 0.00
10 0.00
11 0.00
12 0.00
13 0.00
14 0.00
15 0.00
16 0.00
17 0.00
18 0.00
19 0.00
20 0.00
21 0.00

@<SCITEGIC>ATOM_PROPERTY
pdb_occupancy
SciTegic.value.DoubleValue
1 1.00
2 1.00
3 1.00
4 1.00
5 1.00
6 1.00
7 1.00
8 1.00
9 1.00
10 1.00
11 1.00
12 1.00
13 1.00
14 1.00
15 1.00
16 1.00
17 1.00
18 1.00
19 1.00
20 1.00
21 1.00

