#	copyright 2023 drugdesign.org
#	Creation time:	2024-01-10T22:35:41Z

@<SCITEGIC>ROOT_PROPERTY
Ligand:MaximumNumberOfAtoms
SciTegic.value.IntegerValue
100

@<SCITEGIC>ROOT_PROPERTY
Ligand:HydrogenAtomsCountTowardsMaximum
SciTegic.value.BooleanValue
FALSE

@<TRIPOS>MOLECULE
cGP
   67    70     0 0 0
SMALL
USER_CHARGES


@<TRIPOS>ATOM
      1 O1            1.660500    2.571500   -1.766900 O.2      1 SUBUNIT   -0.2717
      2 C2            0.809600    1.939500   -1.135200 C.2      1 SUBUNIT    0.2458
      3 C3           -0.480800    2.631500   -0.798400 C.2      1 SUBUNIT    0.0378
      4 C4           -0.487200    3.825800   -0.053200 C.2      1 SUBUNIT   -0.0467
      5 C5           -1.709300    4.454800    0.251400 C.2      1 SUBUNIT   -0.0501
      6 C6           -2.929600    3.909300   -0.188300 C.2      1 SUBUNIT   -0.0563
      7 C7           -2.925000    2.721900   -0.939600 C.2      1 SUBUNIT   -0.0501
      8 C8           -1.705500    2.086300   -1.242600 C.2      1 SUBUNIT   -0.0467
      9 C9           -1.715300    5.751500    1.070000 C.3      1 SUBUNIT   -0.0397
     10 C10          -4.247500    2.115900   -1.430800 C.3      1 SUBUNIT   -0.0397
     11 N11           1.019300    0.643400   -0.759600 N.am     1 SUBUNIT   -0.2941
     12 C12          -0.111500   -0.221200   -0.358400 C.3      1 SUBUNIT    0.0185
     13 C13           0.010000   -1.686200   -0.833800 C.3      1 SUBUNIT    0.0001
     14 C14           1.379100   -2.302000   -0.459100 C.3      1 SUBUNIT    0.0758
     15 C15           2.428000   -1.416300   -1.188900 C.3      1 SUBUNIT    0.0033
     16 C16           2.394100    0.073500   -0.755400 C.3      1 SUBUNIT    0.0334
     17 N17           1.429300   -3.723200   -0.897500 N.3      1 SUBUNIT    0.2360
     18 C18           2.004100   -4.640300    0.127900 C.3      1 SUBUNIT    0.0656
     19 C19           2.932800   -5.708900   -0.494100 C.3      1 SUBUNIT    0.0065
     20 C20           2.168400   -6.885000   -1.118800 C.2      1 SUBUNIT   -0.0444
     21 C21           0.778100   -6.791900   -1.331500 C.2      1 SUBUNIT   -0.0589
     22 C22           0.079500   -7.867300   -1.902300 C.2      1 SUBUNIT   -0.0620
     23 C23           0.769000   -9.037300   -2.262300 C.2      1 SUBUNIT   -0.0622
     24 C24           2.157800   -9.131500   -2.053700 C.2      1 SUBUNIT   -0.0620
     25 C25           2.857200   -8.056600   -1.482900 C.2      1 SUBUNIT   -0.0589
     26 H26           0.540000   -4.019000   -1.095000 H        1 SUBUNIT    0.2678
     27 C27           3.120700    0.268100    0.609700 C.3      1 SUBUNIT   -0.0089
     28 C28           4.543300   -0.316000    0.677600 C.2      1 SUBUNIT   -0.0462
     29 C29           5.628200    0.405100    0.141100 C.2      1 SUBUNIT   -0.0590
     30 C30           6.927600   -0.125800    0.206300 C.2      1 SUBUNIT   -0.0620
     31 C31           7.146000   -1.377700    0.809700 C.2      1 SUBUNIT   -0.0622
     32 C32           6.065100   -2.098300    1.349300 C.2      1 SUBUNIT   -0.0620
     33 C33           4.765600   -1.568000    1.284600 C.2      1 SUBUNIT   -0.0590
     34 H34           0.461200    4.267000    0.290600 H        1 SUBUNIT    0.0634
     35 H35          -3.880300    4.408800    0.054300 H        1 SUBUNIT    0.0628
     36 H36          -1.706800    1.155800   -1.831200 H        1 SUBUNIT    0.0634
     37 H37          -2.760300    6.106700    1.212900 H        1 SUBUNIT    0.0280
     38 H38          -1.248000    5.565200    2.062900 H        1 SUBUNIT    0.0280
     39 H39          -1.128800    6.531000    0.534100 H        1 SUBUNIT    0.0280
     40 H40          -4.048900    1.183300   -2.004900 H        1 SUBUNIT    0.0280
     41 H41          -4.895500    1.882200   -0.556600 H        1 SUBUNIT    0.0280
     42 H42          -4.771100    2.849100   -2.084300 H        1 SUBUNIT    0.0280
     43 H43          -0.175600   -0.219000    0.752800 H        1 SUBUNIT    0.0471
     44 H44          -1.046600    0.207400   -0.783400 H        1 SUBUNIT    0.0471
     45 H45          -0.797500   -2.287200   -0.358900 H        1 SUBUNIT    0.0323
     46 H46          -0.108200   -1.716800   -1.940100 H        1 SUBUNIT    0.0323
     47 H47           1.532700   -2.240400    0.641500 H        1 SUBUNIT    0.0751
     48 H48           3.441800   -1.822400   -0.974400 H        1 SUBUNIT    0.0326
     49 H49           2.232600   -1.469000   -2.283400 H        1 SUBUNIT    0.0326
     50 H50           2.978800    0.641300   -1.513400 H        1 SUBUNIT    0.0511
     51 Lp51          1.760300   -3.759800   -1.396600 ?        1 SUBUNIT    0.0000
     52 H52           2.589600   -4.038600    0.858600 H        1 SUBUNIT    0.0716
     53 H53           1.170200   -5.154400    0.656300 H        1 SUBUNIT    0.0716
     54 H54           3.547900   -5.225800   -1.286000 H        1 SUBUNIT    0.0353
     55 H55           3.601200   -6.104500    0.303200 H        1 SUBUNIT    0.0353
     56 H56           0.239300   -5.874200   -1.049400 H        1 SUBUNIT    0.0626
     57 H57          -1.006600   -7.794000   -2.067600 H        1 SUBUNIT    0.0623
     58 H58           0.221900   -9.882100   -2.708500 H        1 SUBUNIT    0.0623
     59 H59           2.695900  -10.048900   -2.338400 H        1 SUBUNIT    0.0623
     60 H60           3.943600   -8.130200   -1.320200 H        1 SUBUNIT    0.0626
     61 H61           3.185200    1.360200    0.814400 H        1 SUBUNIT    0.0335
     62 H62           2.508200   -0.220700    1.400000 H        1 SUBUNIT    0.0335
     63 H63           5.457800    1.385600   -0.329800 H        1 SUBUNIT    0.0626
     64 H64           7.774500    0.437900   -0.214700 H        1 SUBUNIT    0.0623
     65 H65           8.164000   -1.793900    0.859600 H        1 SUBUNIT    0.0623
     66 H66           6.237300   -3.077600    1.822100 H        1 SUBUNIT    0.0623
     67 H67           3.920100   -2.131400    1.708800 H        1 SUBUNIT    0.0626
@<TRIPOS>BOND
     1    1    2 2
     2    2    3 1
     3    2   11 1
     4    3    4 2
     5    3    8 1
     6    4    5 1
     7    4   34 1
     8    5    6 2
     9    5    9 1
    10    6    7 1
    11    6   35 1
    12    7    8 2
    13    7   10 1
    14    8   36 1
    15    9   37 1
    16    9   38 1
    17    9   39 1
    18   10   40 1
    19   10   41 1
    20   10   42 1
    21   11   12 1
    22   11   16 1
    23   12   13 1
    24   12   43 1
    25   12   44 1
    26   13   14 1
    27   13   45 1
    28   13   46 1
    29   14   15 1
    30   14   17 1
    31   14   47 1
    32   15   16 1
    33   15   48 1
    34   15   49 1
    35   16   27 1
    36   16   50 1
    37   17   18 1
    38   17   26 1
    39   17   51 1
    40   18   19 1
    41   18   52 1
    42   18   53 1
    43   19   20 1
    44   19   54 1
    45   19   55 1
    46   20   21 2
    47   20   25 1
    48   21   22 1
    49   21   56 1
    50   22   23 2
    51   22   57 1
    52   23   24 1
    53   23   58 1
    54   24   25 2
    55   24   59 1
    56   25   60 1
    57   27   28 1
    58   27   61 1
    59   27   62 1
    60   28   29 2
    61   28   33 1
    62   29   30 1
    63   29   63 1
    64   30   31 2
    65   30   64 1
    66   31   32 1
    67   31   65 1
    68   32   33 2
    69   32   66 1
    70   33   67 1
@<SCITEGIC>ATOM_PROPERTY
Formal Charge
SciTegic.value.StringValue
1 0
2 0
3 0
4 0
5 0
6 0
7 0
8 0
9 0
10 0
11 0
12 0
13 0
14 0
15 0
16 0
17 0
18 0
19 0
20 0
21 0
22 0
23 0
24 0
25 0
26 0
27 0
28 0
29 0
30 0
31 0
32 0
33 0
34 0
35 0
36 0
37 0
38 0
39 0
40 0
41 0
42 0
43 0
44 0
45 0
46 0
47 0
48 0
49 0
50 0
51 0
52 0
53 0
54 0
55 0
56 0
57 0
58 0
59 0
60 0
61 0
62 0
63 0
64 0
65 0
66 0
67 0

@<SCITEGIC>ATOM_PROPERTY
pdb_tempFactor
SciTegic.value.DoubleValue
1 0.00
2 0.00
3 0.00
4 0.00
5 0.00
6 0.00
7 0.00
8 0.00
9 0.00
10 0.00
11 0.00
12 0.00
13 0.00
14 0.00
15 0.00
16 0.00
17 0.00
18 0.00
19 0.00
20 0.00
21 0.00
22 0.00
23 0.00
24 0.00
25 0.00
26 0.00
27 0.00
28 0.00
29 0.00
30 0.00
31 0.00
32 0.00
33 0.00
34 0.00
35 0.00
36 0.00
37 0.00
38 0.00
39 0.00
40 0.00
41 0.00
42 0.00
43 0.00
44 0.00
45 0.00
46 0.00
47 0.00
48 0.00
49 0.00
50 0.00
51 0.00
52 0.00
53 0.00
54 0.00
55 0.00
56 0.00
57 0.00
58 0.00
59 0.00
60 0.00
61 0.00
62 0.00
63 0.00
64 0.00
65 0.00
66 0.00
67 0.00

@<SCITEGIC>ATOM_PROPERTY
pdb_occupancy
SciTegic.value.DoubleValue
1 1.00
2 1.00
3 1.00
4 1.00
5 1.00
6 1.00
7 1.00
8 1.00
9 1.00
10 1.00
11 1.00
12 1.00
13 1.00
14 1.00
15 1.00
16 1.00
17 1.00
18 1.00
19 1.00
20 1.00
21 1.00
22 1.00
23 1.00
24 1.00
25 1.00
26 1.00
27 1.00
28 1.00
29 1.00
30 1.00
31 1.00
32 1.00
33 1.00
34 1.00
35 1.00
36 1.00
37 1.00
38 1.00
39 1.00
40 1.00
41 1.00
42 1.00
43 1.00
44 1.00
45 1.00
46 1.00
47 1.00
48 1.00
49 1.00
50 1.00
51 1.00
52 1.00
53 1.00
54 1.00
55 1.00
56 1.00
57 1.00
58 1.00
59 1.00
60 1.00
61 1.00
62 1.00
63 1.00
64 1.00
65 1.00
66 1.00
67 1.00

#	copyright 2023 drugdesign.org
#	Creation time:	2024-01-10T22:35:41Z

@<SCITEGIC>ROOT_PROPERTY
Ligand:MaximumNumberOfAtoms
SciTegic.value.IntegerValue
100

@<SCITEGIC>ROOT_PROPERTY
Ligand:HydrogenAtomsCountTowardsMaximum
SciTegic.value.BooleanValue
FALSE

@<TRIPOS>MOLECULE
SP
  196   199     0 0 0
SMALL
USER_CHARGES


@<TRIPOS>ATOM
      1 N1           -2.333900    8.426800    5.595900 N.3      1 SUBUNIT    0.2307
      2 C2           -1.656800    7.364100    6.389700 C.3      1 SUBUNIT    0.1497
      3 C3           -1.296500    6.226300    5.422000 C.2      1 SUBUNIT    0.2562
      4 O4           -1.991400    6.093000    4.402500 O.2      1 SUBUNIT   -0.2728
      5 C5           -2.612600    6.854400    7.497900 C.3      1 SUBUNIT   -0.0055
      6 C6           -2.953300    7.958100    8.514400 C.3      1 SUBUNIT   -0.0359
      7 C7           -3.889300    7.401900    9.612500 C.3      1 SUBUNIT    0.0041
      8 N8           -4.266700    8.466300   10.538400 N.pl3    1 SUBUNIT   -0.2477
      9 C9           -3.481600    8.904200   11.536400 C.cat    1 SUBUNIT    0.1981
     10 N10          -2.267900    8.377500   11.754500 N.pl3    1 SUBUNIT    0.2665
     11 N11          -3.914900    9.883000   12.328700 N.pl3    1 SUBUNIT   -0.2613
     12 H12          -5.185100    8.884800   10.401000 H        1 SUBUNIT    0.1325
     13 H13          -1.924600    7.632400   11.162500 H        1 SUBUNIT    0.2734
     14 H14          -3.328300   10.217500   13.085100 H        1 SUBUNIT    0.1286
     15 H15          -4.833000   10.297300   12.183200 H        1 SUBUNIT    0.1286
     16 H16          -1.674700    8.707900   12.509100 H        1 SUBUNIT    0.2734
     17 C17           0.698500    5.572000    6.818400 C.3      1 SUBUNIT    0.0151
     18 N18          -0.228400    5.438700    5.691700 N.am     1 SUBUNIT   -0.2865
     19 C19           0.134200    4.292000    4.866100 C.3      1 SUBUNIT    0.1022
     20 C20          -0.882800    3.147300    5.070300 C.2      1 SUBUNIT    0.2330
     21 O21          -1.640000    3.132700    6.050600 O.2      1 SUBUNIT   -0.2755
     22 C22           1.550700    3.887900    5.335600 C.3      1 SUBUNIT   -0.0241
     23 C23           1.548500    4.287400    6.818800 C.3      1 SUBUNIT   -0.0350
     24 H24          -0.242600    2.229700    3.358200 H        1 SUBUNIT    0.1502
     25 N25          -0.888700    2.178100    4.145400 N.am     1 SUBUNIT   -0.3021
     26 C26          -1.781800    1.014200    4.156700 C.3      1 SUBUNIT    0.0995
     27 C27          -1.148600   -0.008100    3.196300 C.2      1 SUBUNIT    0.2354
     28 O28          -0.565800    0.425200    2.190000 O.2      1 SUBUNIT   -0.2753
     29 C29          -3.185800    1.472400    3.669900 C.3      1 SUBUNIT   -0.0257
     30 C30          -4.261100    0.365100    3.723000 C.3      1 SUBUNIT   -0.0476
     31 C31          -5.599900    0.877600    3.144300 C.3      1 SUBUNIT   -0.0189
     32 C32          -6.652200   -0.251400    3.177800 C.3      1 SUBUNIT    0.0593
     33 N33          -7.899400    0.192800    2.505600 N.3      1 SUBUNIT    0.2222
     34 C34          -1.840400   -2.002400    4.598000 C.3      1 SUBUNIT    0.0151
     35 N35          -1.226400   -1.337500    3.445100 N.am     1 SUBUNIT   -0.2883
     36 C36          -0.662800   -2.332700    2.530900 C.3      1 SUBUNIT    0.1022
     37 C37          -1.166600   -2.124700    1.086600 C.2      1 SUBUNIT    0.2330
     38 O38          -0.364800   -2.128400    0.141700 O.2      1 SUBUNIT   -0.2755
     39 C39          -1.041900   -3.714500    3.114900 C.3      1 SUBUNIT   -0.0241
     40 C40          -2.180800   -3.416500    4.108500 C.3      1 SUBUNIT   -0.0350
     41 H41          -3.093400   -1.915500    1.723000 H        1 SUBUNIT    0.1502
     42 N42          -2.482500   -1.887100    0.912100 N.am     1 SUBUNIT   -0.3021
     43 C43          -3.084200   -1.570000   -0.391800 C.3      1 SUBUNIT    0.0998
     44 C44          -2.347200   -0.402900   -1.098100 C.2      1 SUBUNIT    0.2328
     45 O45          -2.192600   -0.403700   -2.323100 O.2      1 SUBUNIT   -0.2755
     46 C46          -4.584900   -1.245000   -0.189800 C.3      1 SUBUNIT   -0.0172
     47 C47          -5.339700   -1.097600   -1.533300 C.3      1 SUBUNIT    0.0264
     48 C48          -6.839800   -0.805500   -1.339100 C.2      1 SUBUNIT    0.2092
     49 O49          -7.298600   -0.526600   -0.229100 O.2      1 SUBUNIT   -0.2779
     50 N50          -7.624700   -0.862300   -2.422800 N.am     1 SUBUNIT   -0.3292
     51 H51          -8.618600   -0.671800   -2.314700 H        1 SUBUNIT    0.1455
     52 H52          -7.233300   -1.086800   -3.330500 H        1 SUBUNIT    0.1455
     53 H53          -1.921500    0.468300    0.689300 H        1 SUBUNIT    0.1502
     54 N54          -1.891500    0.590600   -0.321700 N.am     1 SUBUNIT   -0.3021
     55 C55          -1.236900    1.805800   -0.825000 C.3      1 SUBUNIT    0.0998
     56 C56           0.247800    1.545000   -1.178400 C.2      1 SUBUNIT    0.2328
     57 O57           0.899700    2.424400   -1.759800 O.2      1 SUBUNIT   -0.2755
     58 C58          -1.381500    2.886600    0.263200 C.3      1 SUBUNIT   -0.0172
     59 C59          -1.080700    4.336200   -0.182500 C.3      1 SUBUNIT    0.0264
     60 C60          -1.106000    5.255400    1.040100 C.2      1 SUBUNIT    0.2092
     61 O61          -0.094500    5.873700    1.389300 O.2      1 SUBUNIT   -0.2779
     62 N62          -2.248700    5.306700    1.737400 N.am     1 SUBUNIT   -0.3292
     63 H63          -2.247700    5.809500    2.625500 H        1 SUBUNIT    0.1455
     64 H64          -3.070100    4.790000    1.441500 H        1 SUBUNIT    0.1455
     65 H65           0.195300   -0.330600   -0.358600 H        1 SUBUNIT    0.1502
     66 N66           0.794600    0.366200   -0.809800 N.am     1 SUBUNIT   -0.3018
     67 C67           2.205000    0.013000   -1.027500 C.3      1 SUBUNIT    0.1033
     68 C68           2.291800   -1.321100   -1.778700 C.2      1 SUBUNIT    0.2331
     69 O69           2.551500   -1.340100   -2.986100 O.2      1 SUBUNIT   -0.2755
     70 C70           2.941600   -0.022500    0.331800 C.3      1 SUBUNIT   -0.0005
     71 C71           4.411600   -0.479900    0.246200 C.2      1 SUBUNIT   -0.0456
     72 C72           5.374700    0.353600   -0.382500 C.2      1 SUBUNIT   -0.0590
     73 C73           7.116800   -1.323700    0.047400 C.2      1 SUBUNIT   -0.0622
     74 C74           6.157700   -2.156600    0.679400 C.2      1 SUBUNIT   -0.0620
     75 C75           4.807000   -1.735300    0.780700 C.2      1 SUBUNIT   -0.0590
     76 C76           6.725200   -0.068500   -0.482900 C.2      1 SUBUNIT   -0.0620
     77 H77           1.597000   -2.333200   -0.163900 H        1 SUBUNIT    0.1502
     78 N78           2.018400   -2.441100   -1.083200 N.am     1 SUBUNIT   -0.3018
     79 C79           1.999500   -3.772100   -1.685600 C.3      1 SUBUNIT    0.1033
     80 C80           0.988800   -3.790400   -2.848500 C.2      1 SUBUNIT    0.2329
     81 O81           1.272900   -4.320100   -3.924200 O.2      1 SUBUNIT   -0.2755
     82 C82           1.640900   -4.825200   -0.608400 C.3      1 SUBUNIT   -0.0005
     83 C83           1.614400   -6.270300   -1.122500 C.2      1 SUBUNIT   -0.0456
     84 C84           2.824800   -7.002100   -1.235000 C.2      1 SUBUNIT   -0.0590
     85 C85           1.572100   -8.934200   -2.069400 C.2      1 SUBUNIT   -0.0622
     86 C86           0.362900   -8.202000   -1.966800 C.2      1 SUBUNIT   -0.0620
     87 C87           0.383300   -6.871500   -1.494700 C.2      1 SUBUNIT   -0.0590
     88 C88           2.803100   -8.333100   -1.705400 C.2      1 SUBUNIT   -0.0620
     89 H89          -0.351000   -2.729200   -1.734000 H        1 SUBUNIT    0.1500
     90 N90          -0.190700   -3.177000   -2.635800 N.am     1 SUBUNIT   -0.3048
     91 C91          -1.234900   -3.105300   -3.664300 C.3      1 SUBUNIT    0.0882
     92 C92          -0.982700   -2.012200   -4.728600 C.2      1 SUBUNIT    0.2296
     93 O93          -1.824700   -1.840500   -5.625100 O.2      1 SUBUNIT   -0.2759
     94 H94           0.863400   -1.477300   -3.969300 H        1 SUBUNIT    0.1502
     95 N95           0.146900   -1.270900   -4.671000 N.am     1 SUBUNIT   -0.3023
     96 C96           0.406300   -0.153600   -5.595000 C.3      1 SUBUNIT    0.0995
     97 C97           0.907700   -0.684500   -6.949800 C.2      1 SUBUNIT    0.2328
     98 O98           2.048300   -0.418500   -7.367300 O.2      1 SUBUNIT   -0.2755
     99 C99           1.400900    0.835800   -4.943500 C.3      1 SUBUNIT   -0.0235
    100 C100          1.493600    2.212400   -5.657000 C.3      1 SUBUNIT   -0.0449
    101 C101          0.201100    3.045000   -5.486700 C.3      1 SUBUNIT   -0.0627
    102 C102          2.683300    2.998800   -5.064700 C.3      1 SUBUNIT   -0.0627
    103 H103         -0.872700   -1.616000   -7.236700 H        1 SUBUNIT    0.1502
    104 N104          0.042400   -1.428800   -7.658100 N.am     1 SUBUNIT   -0.3021
    105 C105          0.350800   -2.031300   -8.953300 C.3      1 SUBUNIT    0.0998
    106 C106          0.353600   -0.944100  -10.056400 C.2      1 SUBUNIT    0.2296
    107 O107         -0.475000   -0.941900  -10.974200 O.2      1 SUBUNIT   -0.2758
    108 C108         -0.654300   -3.179000   -9.215400 C.3      1 SUBUNIT   -0.0167
    109 C109         -0.240400   -4.051000  -10.414400 C.3      1 SUBUNIT   -0.0048
    110 S110         -1.325200   -5.487700  -10.697700 S.3      1 SUBUNIT   -0.1653
    111 C111         -0.617800   -6.297700  -12.156200 C.3      1 SUBUNIT   -0.0184
    112 H112         -1.653400    9.134500    5.323900 H        1 SUBUNIT    0.2659
    113 N113          1.295700    0.002200   -9.970000 N.am     1 SUBUNIT   -0.3275
    114 H114          1.920600   -0.016500   -9.157500 H        1 SUBUNIT    0.1455
    115 H115          1.334200    0.741000  -10.666100 H        1 SUBUNIT    0.1455
    116 H116         -2.666600    7.958600    4.752700 H        1 SUBUNIT    0.2659
    117 H117         -7.982500    1.203100    2.559700 H        1 SUBUNIT    0.2653
    118 H118         -7.851400   -0.077500    1.521200 H        1 SUBUNIT    0.2653
    119 Lp119        -2.788700    8.669900    5.902700 ?        1 SUBUNIT    0.0000
    120 H120         -0.730100    7.772700    6.851200 H        1 SUBUNIT    0.0854
    121 H121         -3.554600    6.497300    7.024700 H        1 SUBUNIT    0.0313
    122 H122         -2.124600    6.009600    8.033600 H        1 SUBUNIT    0.0313
    123 H123         -2.014600    8.328500    8.983900 H        1 SUBUNIT    0.0281
    124 H124         -3.460500    8.798200    7.989300 H        1 SUBUNIT    0.0281
    125 H125         -4.805600    6.984300    9.138400 H        1 SUBUNIT    0.0433
    126 H126         -3.362700    6.596700   10.172000 H        1 SUBUNIT    0.0433
    127 H127          1.347400    6.466100    6.682800 H        1 SUBUNIT    0.0470
    128 H128          0.136000    5.665000    7.774300 H        1 SUBUNIT    0.0470
    129 H129          0.160300    4.589500    3.793900 H        1 SUBUNIT    0.0607
    130 H130          2.333200    4.443700    4.772200 H        1 SUBUNIT    0.0291
    131 H131          1.715600    2.793800    5.215600 H        1 SUBUNIT    0.0291
    132 H132          1.081900    3.496500    7.447800 H        1 SUBUNIT    0.0283
    133 H133          2.580900    4.488200    7.182900 H        1 SUBUNIT    0.0283
    134 H134         -1.848900    0.589300    5.183200 H        1 SUBUNIT    0.0605
    135 H135         -3.520900    2.317200    4.312500 H        1 SUBUNIT    0.0291
    136 H136         -3.094800    1.822100    2.617200 H        1 SUBUNIT    0.0291
    137 H137         -3.915600   -0.509300    3.127300 H        1 SUBUNIT    0.0269
    138 H138         -4.414600    0.054400    4.780700 H        1 SUBUNIT    0.0269
    139 H139         -5.960600    1.737100    3.752500 H        1 SUBUNIT    0.0304
    140 H140         -5.445700    1.207800    2.092600 H        1 SUBUNIT    0.0304
    141 H141         -6.249400   -1.146200    2.652700 H        1 SUBUNIT    0.0711
    142 H142         -6.877400   -0.513800    4.235800 H        1 SUBUNIT    0.0711
    143 Lp143        -8.374600   -0.065500    2.765400 ?        1 SUBUNIT    0.0000
    144 H144         -1.126600   -2.045000    5.450900 H        1 SUBUNIT    0.0470
    145 H145         -2.762500   -1.465300    4.914100 H        1 SUBUNIT    0.0470
    146 H146          0.445900   -2.235300    2.538500 H        1 SUBUNIT    0.0607
    147 H147         -0.172900   -4.172100    3.638400 H        1 SUBUNIT    0.0291
    148 H148         -1.391200   -4.399300    2.310100 H        1 SUBUNIT    0.0291
    149 H149         -3.171700   -3.438500    3.602000 H        1 SUBUNIT    0.0283
    150 H150         -2.179800   -4.144200    4.950600 H        1 SUBUNIT    0.0283
    151 H151         -3.007600   -2.472200   -1.039000 H        1 SUBUNIT    0.0605
    152 H152         -5.053800   -2.066900    0.396200 H        1 SUBUNIT    0.0296
    153 H153         -4.671900   -0.290900    0.376600 H        1 SUBUNIT    0.0296
    154 H154         -4.884400   -0.260600   -2.108700 H        1 SUBUNIT    0.0365
    155 H155         -5.231800   -2.043800   -2.109300 H        1 SUBUNIT    0.0365
    156 H156         -1.769000    2.146300   -1.741300 H        1 SUBUNIT    0.0605
    157 H157         -2.428700    2.855100    0.638900 H        1 SUBUNIT    0.0296
    158 H158         -0.683600    2.632300    1.092100 H        1 SUBUNIT    0.0296
    159 H159         -0.075900    4.378300   -0.659200 H        1 SUBUNIT    0.0365
    160 H160         -1.851100    4.668200   -0.914000 H        1 SUBUNIT    0.0365
    161 H161          2.671100    0.802300   -1.658800 H        1 SUBUNIT    0.0608
    162 H162          2.919900    1.001600    0.767000 H        1 SUBUNIT    0.0340
    163 H163          2.397400   -0.722000    1.005100 H        1 SUBUNIT    0.0340
    164 H164          5.072300    1.329500   -0.792900 H        1 SUBUNIT    0.0626
    165 H165          8.164800   -1.652000   -0.031100 H        1 SUBUNIT    0.0623
    166 H166          6.462100   -3.131000    1.091800 H        1 SUBUNIT    0.0623
    167 H167          4.064500   -2.381700    1.273800 H        1 SUBUNIT    0.0626
    168 H168          7.469300    0.578600   -0.972700 H        1 SUBUNIT    0.0623
    169 H169          3.012500   -3.999300   -2.086700 H        1 SUBUNIT    0.0608
    170 H170          2.394100   -4.759200    0.208400 H        1 SUBUNIT    0.0340
    171 H171          0.633600   -4.580500   -0.203000 H        1 SUBUNIT    0.0340
    172 H172          3.780500   -6.532100   -0.955700 H        1 SUBUNIT    0.0626
    173 H173          1.555100   -9.973200   -2.433100 H        1 SUBUNIT    0.0623
    174 H174         -0.591100   -8.670100   -2.254800 H        1 SUBUNIT    0.0623
    175 H175         -0.554800   -6.300700   -1.415200 H        1 SUBUNIT    0.0626
    176 H176          3.741100   -8.903500   -1.789300 H        1 SUBUNIT    0.0623
    177 H177         -1.291000   -4.090900   -4.178300 H        1 SUBUNIT    0.0567
    178 H178         -2.206800   -2.892900   -3.165000 H        1 SUBUNIT    0.0567
    179 H179         -0.553400    0.383100   -5.767200 H        1 SUBUNIT    0.0605
    180 H180          1.081800    1.009100   -3.891400 H        1 SUBUNIT    0.0293
    181 H181          2.411700    0.370100   -4.951300 H        1 SUBUNIT    0.0293
    182 H182          1.675400    2.045400   -6.742300 H        1 SUBUNIT    0.0298
    183 H183          0.305600    4.021600   -6.010200 H        1 SUBUNIT    0.0233
    184 H184         -0.659800    2.484800   -5.915400 H        1 SUBUNIT    0.0233
    185 H185          0.014700    3.222800   -4.403900 H        1 SUBUNIT    0.0233
    186 H186          2.769300    3.990800   -5.562000 H        1 SUBUNIT    0.0233
    187 H187          2.524700    3.144000   -3.972700 H        1 SUBUNIT    0.0233
    188 H188          3.622900    2.423000   -5.221000 H        1 SUBUNIT    0.0233
    189 H189          1.371900   -2.470700   -8.896900 H        1 SUBUNIT    0.0605
    190 H190         -0.711100   -3.820600   -8.307700 H        1 SUBUNIT    0.0299
    191 H191         -1.655900   -2.739100   -9.420400 H        1 SUBUNIT    0.0299
    192 H192         -0.253000   -3.417100  -11.329200 H        1 SUBUNIT    0.0381
    193 H193          0.793500   -4.422800  -10.236600 H        1 SUBUNIT    0.0381
    194 H194         -1.222800   -7.197600  -12.407000 H        1 SUBUNIT    0.0344
    195 H195         -0.624100   -5.591200  -13.016200 H        1 SUBUNIT    0.0344
    196 H196          0.432000   -6.600300  -11.943500 H        1 SUBUNIT    0.0344
@<TRIPOS>BOND
     1    1    2 1
     2    1  112 1
     3    1  116 1
     4    1  119 1
     5    2    3 1
     6    2    5 1
     7    2  120 1
     8    3    4 2
     9    3   18 1
    10    5    6 1
    11    5  121 1
    12    5  122 1
    13    6    7 1
    14    6  123 1
    15    6  124 1
    16    7    8 1
    17    7  125 1
    18    7  126 1
    19    8    9 1
    20    8   12 1
    21    9   10 2
    22    9   11 1
    23   10   13 1
    24   10   16 1
    25   11   14 1
    26   11   15 1
    27   17   18 1
    28   17   23 1
    29   17  127 1
    30   17  128 1
    31   18   19 1
    32   19   20 1
    33   19   22 1
    34   19  129 1
    35   20   21 2
    36   20   25 1
    37   22   23 1
    38   22  130 1
    39   22  131 1
    40   23  132 1
    41   23  133 1
    42   24   25 1
    43   25   26 1
    44   26   27 1
    45   26   29 1
    46   26  134 1
    47   27   28 2
    48   27   35 1
    49   29   30 1
    50   29  135 1
    51   29  136 1
    52   30   31 1
    53   30  137 1
    54   30  138 1
    55   31   32 1
    56   31  139 1
    57   31  140 1
    58   32   33 1
    59   32  141 1
    60   32  142 1
    61   33  117 1
    62   33  118 1
    63   33  143 1
    64   34   35 1
    65   34   40 1
    66   34  144 1
    67   34  145 1
    68   35   36 1
    69   36   37 1
    70   36   39 1
    71   36  146 1
    72   37   38 2
    73   37   42 1
    74   39   40 1
    75   39  147 1
    76   39  148 1
    77   40  149 1
    78   40  150 1
    79   41   42 1
    80   42   43 1
    81   43   44 1
    82   43   46 1
    83   43  151 1
    84   44   45 2
    85   44   54 1
    86   46   47 1
    87   46  152 1
    88   46  153 1
    89   47   48 1
    90   47  154 1
    91   47  155 1
    92   48   49 2
    93   48   50 1
    94   50   51 1
    95   50   52 1
    96   53   54 1
    97   54   55 1
    98   55   56 1
    99   55   58 1
   100   55  156 1
   101   56   57 2
   102   56   66 1
   103   58   59 1
   104   58  157 1
   105   58  158 1
   106   59   60 1
   107   59  159 1
   108   59  160 1
   109   60   61 2
   110   60   62 1
   111   62   63 1
   112   62   64 1
   113   65   66 1
   114   66   67 1
   115   67   68 1
   116   67   70 1
   117   67  161 1
   118   68   69 2
   119   68   78 1
   120   70   71 1
   121   70  162 1
   122   70  163 1
   123   71   72 2
   124   71   75 1
   125   72   76 1
   126   72  164 1
   127   73   76 2
   128   73   74 1
   129   73  165 1
   130   74   75 2
   131   74  166 1
   132   75  167 1
   133   76  168 1
   134   77   78 1
   135   78   79 1
   136   79   80 1
   137   79   82 1
   138   79  169 1
   139   80   81 2
   140   80   90 1
   141   82   83 1
   142   82  170 1
   143   82  171 1
   144   83   84 2
   145   83   87 1
   146   84   88 1
   147   84  172 1
   148   85   88 2
   149   85   86 1
   150   85  173 1
   151   86   87 2
   152   86  174 1
   153   87  175 1
   154   88  176 1
   155   89   90 1
   156   90   91 1
   157   91   92 1
   158   91  177 1
   159   91  178 1
   160   92   93 2
   161   92   95 1
   162   94   95 1
   163   95   96 1
   164   96   97 1
   165   96   99 1
   166   96  179 1
   167   97   98 2
   168   97  104 1
   169   99  100 1
   170   99  180 1
   171   99  181 1
   172  100  101 1
   173  100  102 1
   174  100  182 1
   175  101  183 1
   176  101  184 1
   177  101  185 1
   178  102  186 1
   179  102  187 1
   180  102  188 1
   181  103  104 1
   182  104  105 1
   183  105  106 1
   184  105  108 1
   185  105  189 1
   186  106  107 2
   187  106  113 1
   188  108  109 1
   189  108  190 1
   190  108  191 1
   191  109  110 1
   192  109  192 1
   193  109  193 1
   194  110  111 1
   195  111  194 1
   196  111  195 1
   197  111  196 1
   198  113  114 1
   199  113  115 1
@<SCITEGIC>ATOM_PROPERTY
Formal Charge
SciTegic.value.StringValue
1 0
2 0
3 0
4 0
5 0
6 0
7 0
8 0
9 0
10 0
11 0
12 0
13 0
14 0
15 0
16 0
17 0
18 0
19 0
20 0
21 0
22 0
23 0
24 0
25 0
26 0
27 0
28 0
29 0
30 0
31 0
32 0
33 0
34 0
35 0
36 0
37 0
38 0
39 0
40 0
41 0
42 0
43 0
44 0
45 0
46 0
47 0
48 0
49 0
50 0
51 0
52 0
53 0
54 0
55 0
56 0
57 0
58 0
59 0
60 0
61 0
62 0
63 0
64 0
65 0
66 0
67 0
68 0
69 0
70 0
71 0
72 0
73 0
74 0
75 0
76 0
77 0
78 0
79 0
80 0
81 0
82 0
83 0
84 0
85 0
86 0
87 0
88 0
89 0
90 0
91 0
92 0
93 0
94 0
95 0
96 0
97 0
98 0
99 0
100 0
101 0
102 0
103 0
104 0
105 0
106 0
107 0
108 0
109 0
110 0
111 0
112 0
113 0
114 0
115 0
116 0
117 0
118 0
119 0
120 0
121 0
122 0
123 0
124 0
125 0
126 0
127 0
128 0
129 0
130 0
131 0
132 0
133 0
134 0
135 0
136 0
137 0
138 0
139 0
140 0
141 0
142 0
143 0
144 0
145 0
146 0
147 0
148 0
149 0
150 0
151 0
152 0
153 0
154 0
155 0
156 0
157 0
158 0
159 0
160 0
161 0
162 0
163 0
164 0
165 0
166 0
167 0
168 0
169 0
170 0
171 0
172 0
173 0
174 0
175 0
176 0
177 0
178 0
179 0
180 0
181 0
182 0
183 0
184 0
185 0
186 0
187 0
188 0
189 0
190 0
191 0
192 0
193 0
194 0
195 0
196 0

@<SCITEGIC>ATOM_PROPERTY
pdb_tempFactor
SciTegic.value.DoubleValue
1 0.00
2 0.00
3 0.00
4 0.00
5 0.00
6 0.00
7 0.00
8 0.00
9 0.00
10 0.00
11 0.00
12 0.00
13 0.00
14 0.00
15 0.00
16 0.00
17 0.00
18 0.00
19 0.00
20 0.00
21 0.00
22 0.00
23 0.00
24 0.00
25 0.00
26 0.00
27 0.00
28 0.00
29 0.00
30 0.00
31 0.00
32 0.00
33 0.00
34 0.00
35 0.00
36 0.00
37 0.00
38 0.00
39 0.00
40 0.00
41 0.00
42 0.00
43 0.00
44 0.00
45 0.00
46 0.00
47 0.00
48 0.00
49 0.00
50 0.00
51 0.00
52 0.00
53 0.00
54 0.00
55 0.00
56 0.00
57 0.00
58 0.00
59 0.00
60 0.00
61 0.00
62 0.00
63 0.00
64 0.00
65 0.00
66 0.00
67 0.00
68 0.00
69 0.00
70 0.00
71 0.00
72 0.00
73 0.00
74 0.00
75 0.00
76 0.00
77 0.00
78 0.00
79 0.00
80 0.00
81 0.00
82 0.00
83 0.00
84 0.00
85 0.00
86 0.00
87 0.00
88 0.00
89 0.00
90 0.00
91 0.00
92 0.00
93 0.00
94 0.00
95 0.00
96 0.00
97 0.00
98 0.00
99 0.00
100 0.00
101 0.00
102 0.00
103 0.00
104 0.00
105 0.00
106 0.00
107 0.00
108 0.00
109 0.00
110 0.00
111 0.00
112 0.00
113 0.00
114 0.00
115 0.00
116 0.00
117 0.00
118 0.00
119 0.00
120 0.00
121 0.00
122 0.00
123 0.00
124 0.00
125 0.00
126 0.00
127 0.00
128 0.00
129 0.00
130 0.00
131 0.00
132 0.00
133 0.00
134 0.00
135 0.00
136 0.00
137 0.00
138 0.00
139 0.00
140 0.00
141 0.00
142 0.00
143 0.00
144 0.00
145 0.00
146 0.00
147 0.00
148 0.00
149 0.00
150 0.00
151 0.00
152 0.00
153 0.00
154 0.00
155 0.00
156 0.00
157 0.00
158 0.00
159 0.00
160 0.00
161 0.00
162 0.00
163 0.00
164 0.00
165 0.00
166 0.00
167 0.00
168 0.00
169 0.00
170 0.00
171 0.00
172 0.00
173 0.00
174 0.00
175 0.00
176 0.00
177 0.00
178 0.00
179 0.00
180 0.00
181 0.00
182 0.00
183 0.00
184 0.00
185 0.00
186 0.00
187 0.00
188 0.00
189 0.00
190 0.00
191 0.00
192 0.00
193 0.00
194 0.00
195 0.00
196 0.00

@<SCITEGIC>ATOM_PROPERTY
pdb_occupancy
SciTegic.value.DoubleValue
1 1.00
2 1.00
3 1.00
4 1.00
5 1.00
6 1.00
7 1.00
8 1.00
9 1.00
10 1.00
11 1.00
12 1.00
13 1.00
14 1.00
15 1.00
16 1.00
17 1.00
18 1.00
19 1.00
20 1.00
21 1.00
22 1.00
23 1.00
24 1.00
25 1.00
26 1.00
27 1.00
28 1.00
29 1.00
30 1.00
31 1.00
32 1.00
33 1.00
34 1.00
35 1.00
36 1.00
37 1.00
38 1.00
39 1.00
40 1.00
41 1.00
42 1.00
43 1.00
44 1.00
45 1.00
46 1.00
47 1.00
48 1.00
49 1.00
50 1.00
51 1.00
52 1.00
53 1.00
54 1.00
55 1.00
56 1.00
57 1.00
58 1.00
59 1.00
60 1.00
61 1.00
62 1.00
63 1.00
64 1.00
65 1.00
66 1.00
67 1.00
68 1.00
69 1.00
70 1.00
71 1.00
72 1.00
73 1.00
74 1.00
75 1.00
76 1.00
77 1.00
78 1.00
79 1.00
80 1.00
81 1.00
82 1.00
83 1.00
84 1.00
85 1.00
86 1.00
87 1.00
88 1.00
89 1.00
90 1.00
91 1.00
92 1.00
93 1.00
94 1.00
95 1.00
96 1.00
97 1.00
98 1.00
99 1.00
100 1.00
101 1.00
102 1.00
103 1.00
104 1.00
105 1.00
106 1.00
107 1.00
108 1.00
109 1.00
110 1.00
111 1.00
112 1.00
113 1.00
114 1.00
115 1.00
116 1.00
117 1.00
118 1.00
119 1.00
120 1.00
121 1.00
122 1.00
123 1.00
124 1.00
125 1.00
126 1.00
127 1.00
128 1.00
129 1.00
130 1.00
131 1.00
132 1.00
133 1.00
134 1.00
135 1.00
136 1.00
137 1.00
138 1.00
139 1.00
140 1.00
141 1.00
142 1.00
143 1.00
144 1.00
145 1.00
146 1.00
147 1.00
148 1.00
149 1.00
150 1.00
151 1.00
152 1.00
153 1.00
154 1.00
155 1.00
156 1.00
157 1.00
158 1.00
159 1.00
160 1.00
161 1.00
162 1.00
163 1.00
164 1.00
165 1.00
166 1.00
167 1.00
168 1.00
169 1.00
170 1.00
171 1.00
172 1.00
173 1.00
174 1.00
175 1.00
176 1.00
177 1.00
178 1.00
179 1.00
180 1.00
181 1.00
182 1.00
183 1.00
184 1.00
185 1.00
186 1.00
187 1.00
188 1.00
189 1.00
190 1.00
191 1.00
192 1.00
193 1.00
194 1.00
195 1.00
196 1.00

