#	Copyright 2023 drugdesign.org
#	Creation time:	2024-01-11T10:51:58Z

@<SCITEGIC>ROOT_PROPERTY
Ligand:MaximumNumberOfAtoms
SciTegic.value.IntegerValue
100

@<SCITEGIC>ROOT_PROPERTY
Ligand:HydrogenAtomsCountTowardsMaximum
SciTegic.value.BooleanValue
FALSE

@<TRIPOS>MOLECULE
Molecule
   28    28     0 0 0
SMALL
USER_CHARGES


@<TRIPOS>ATOM
      1 C1            2.710961   -3.756975    7.306418 C.ar     1 SUBUNIT   -0.0261
      2 C2            3.213583   -2.824190    6.401273 C.ar     1 SUBUNIT   -0.0429
      3 C3            2.366939   -2.337819    5.405508 C.ar     1 SUBUNIT   -0.0562
      4 C4            1.044746   -2.747721    5.308668 C.ar     1 SUBUNIT   -0.0291
      5 C5            0.557378   -3.668915    6.221793 C.ar     1 SUBUNIT    0.1012
      6 C6            1.385051   -4.174670    7.209786 C.ar     1 SUBUNIT    0.1015
      7 H13           3.301059   -4.126133    8.024405 H        1 SUBUNIT    0.0654
      8 C15           4.700021   -2.355381    6.537236 C.3      1 SUBUNIT   -0.0002
      9 H17           2.721753   -1.676762    4.744365 H        1 SUBUNIT    0.0627
     10 H19           0.452166   -2.383516    4.590194 H        1 SUBUNIT    0.0651
     11 O21          -0.740900   -4.098154    6.175145 O.3      1 SUBUNIT   -0.3582
     12 O23           0.849367   -5.101060    8.087214 O.3      1 SUBUNIT   -0.3582
     13 H25          -0.876180   -4.743786    6.917357 H        1 SUBUNIT    0.2184
     14 H27           1.540149   -5.385899    8.729549 H        1 SUBUNIT    0.2184
     15 C29           5.212165   -1.296434    5.465156 C.3      1 SUBUNIT    0.1036
     16 H31           4.807688   -1.946362    7.443388 H        1 SUBUNIT    0.0340
     17 H33           5.281685   -3.165639    6.465480 H        1 SUBUNIT    0.0340
     18 C35           6.629483   -0.928429    5.668283 C.2      1 SUBUNIT    0.2785
     19 C37           4.435372    0.048285    5.556354 C.3      1 SUBUNIT   -0.0370
     20 N39           5.134722   -1.806534    4.098633 N.3      1 SUBUNIT   -0.3168
     21 H41           4.786270    0.683780    4.868651 H        1 SUBUNIT    0.0255
     22 H43           4.557044    0.442958    6.467113 H        1 SUBUNIT    0.0255
     23 H45           3.462762   -0.116253    5.392002 H        1 SUBUNIT    0.0255
     24 O47           7.310976   -0.356636    4.597572 O.3      1 SUBUNIT   -0.3303
     25 O51           7.185323   -1.099625    6.756363 O.2      1 SUBUNIT   -0.2646
     26 H51           8.235624   -0.141132    4.863947 H        1 SUBUNIT    0.2214
     27 H53           5.499452   -1.094129    3.457245 H        1 SUBUNIT    0.1194
     28 H55           4.175640   -2.028915    3.855315 H        1 SUBUNIT    0.1194
@<TRIPOS>BOND
     1    1    2 ar
     2    2    3 ar
     3    3    4 ar
     4    4    5 ar
     5    5    6 ar
     6    6    1 ar
     7    1    7 1
     8    2    8 1
     9    3    9 1
    10    4   10 1
    11    5   11 1
    12    6   12 1
    13   11   13 1
    14   12   14 1
    15    8   15 1
    16    8   16 1
    17    8   17 1
    18   15   18 1
    19   15   19 1
    20   15   20 1
    21   19   21 1
    22   19   22 1
    23   19   23 1
    24   18   24 1
    25   18   25 2
    26   24   26 1
    27   20   27 1
    28   20   28 1
@<SCITEGIC>ATOM_PROPERTY
Formal Charge
SciTegic.value.StringValue
1 0
2 0
3 0
4 0
5 0
6 0
7 0
8 0
9 0
10 0
11 0
12 0
13 0
14 0
15 0
16 0
17 0
18 0
19 0
20 0
21 0
22 0
23 0
24 0
25 0
26 0
27 0
28 0

@<SCITEGIC>ATOM_PROPERTY
pdb_tempFactor
SciTegic.value.DoubleValue
1 0.00
2 0.00
3 0.00
4 0.00
5 0.00
6 0.00
7 0.00
8 0.00
9 0.00
10 0.00
11 0.00
12 0.00
13 0.00
14 0.00
15 0.00
16 0.00
17 0.00
18 0.00
19 0.00
20 0.00
21 0.00
22 0.00
23 0.00
24 0.00
25 0.00
26 0.00
27 0.00
28 0.00

@<SCITEGIC>ATOM_PROPERTY
pdb_occupancy
SciTegic.value.DoubleValue
1 1.00
2 1.00
3 1.00
4 1.00
5 1.00
6 1.00
7 1.00
8 1.00
9 1.00
10 1.00
11 1.00
12 1.00
13 1.00
14 1.00
15 1.00
16 1.00
17 1.00
18 1.00
19 1.00
20 1.00
21 1.00
22 1.00
23 1.00
24 1.00
25 1.00
26 1.00
27 1.00
28 1.00

#	Copyright 2023 drugdesign.org
#	Creation time:	2024-01-11T10:51:58Z

@<SCITEGIC>ROOT_PROPERTY
Ligand:MaximumNumberOfAtoms
SciTegic.value.IntegerValue
100

@<SCITEGIC>ROOT_PROPERTY
Ligand:HydrogenAtomsCountTowardsMaximum
SciTegic.value.BooleanValue
FALSE

@<TRIPOS>MOLECULE
Molecule
   28    28     0 0 0
SMALL
USER_CHARGES


@<TRIPOS>ATOM
      1 C1            2.705295   -3.744509    7.304157 C.ar     1 SUBUNIT   -0.0261
      2 C2            3.207601   -2.812650    6.399726 C.ar     1 SUBUNIT   -0.0429
      3 C3            2.361509   -2.310348    5.410877 C.ar     1 SUBUNIT   -0.0562
      4 C4            1.041387   -2.734884    5.313702 C.ar     1 SUBUNIT   -0.0291
      5 C5            0.560241   -3.670293    6.218898 C.ar     1 SUBUNIT    0.1012
      6 C6            1.384047   -4.167419    7.211332 C.ar     1 SUBUNIT    0.1015
      7 H13           3.296603   -4.110712    8.022667 H        1 SUBUNIT    0.0654
      8 C15           4.701106   -2.403723    6.532830 C.3      1 SUBUNIT   -0.0002
      9 H17           2.710115   -1.634262    4.761736 H        1 SUBUNIT    0.0627
     10 H19           0.444668   -2.370047    4.598984 H        1 SUBUNIT    0.0651
     11 O21          -0.730403   -4.130554    6.164425 O.3      1 SUBUNIT   -0.3582
     12 O23           0.856364   -5.090504    8.097092 O.3      1 SUBUNIT   -0.3582
     13 H25          -0.847538   -4.793167    6.900413 H        1 SUBUNIT    0.2184
     14 H27           1.549398   -5.352603    8.750175 H        1 SUBUNIT    0.2184
     15 C29           5.305517   -1.297445    5.564562 C.3      1 SUBUNIT    0.1036
     16 H31           4.828207   -2.071355    7.467377 H        1 SUBUNIT    0.0340
     17 H33           5.241881   -3.233908    6.397348 H        1 SUBUNIT    0.0340
     18 N35           6.719059   -1.097379    5.842643 N.3      1 SUBUNIT   -0.3168
     19 C37           4.647950    0.087768    5.787115 C.3      1 SUBUNIT   -0.0370
     20 C39           5.271499   -1.649106    4.109456 C.2      1 SUBUNIT    0.2785
     21 H41           5.053620    0.754205    5.161647 H        1 SUBUNIT    0.0255
     22 H43           4.799841    0.381620    6.730849 H        1 SUBUNIT    0.0255
     23 H45           3.665401    0.022745    5.612686 H        1 SUBUNIT    0.0255
     24 H47           7.084431   -0.378915    5.200647 H        1 SUBUNIT    0.1194
     25 H49           6.842372   -0.794146    6.811492 H        1 SUBUNIT    0.1194
     26 O53           6.069479   -0.927598    3.239279 O.3      1 SUBUNIT   -0.3303
     27 O55           4.574312   -2.574340    3.686236 O.2      1 SUBUNIT   -0.2646
     28 H55           5.953871   -1.278979    2.322498 H        1 SUBUNIT    0.2214
@<TRIPOS>BOND
     1    1    2 ar
     2    2    3 ar
     3    3    4 ar
     4    4    5 ar
     5    5    6 ar
     6    6    1 ar
     7    1    7 1
     8    2    8 1
     9    3    9 1
    10    4   10 1
    11    5   11 1
    12    6   12 1
    13   11   13 1
    14   12   14 1
    15    8   15 1
    16    8   16 1
    17    8   17 1
    18   15   18 1
    19   15   19 1
    20   15   20 1
    21   19   21 1
    22   19   22 1
    23   19   23 1
    24   18   24 1
    25   18   25 1
    26   20   26 1
    27   20   27 2
    28   26   28 1
@<SCITEGIC>ATOM_PROPERTY
Formal Charge
SciTegic.value.StringValue
1 0
2 0
3 0
4 0
5 0
6 0
7 0
8 0
9 0
10 0
11 0
12 0
13 0
14 0
15 0
16 0
17 0
18 0
19 0
20 0
21 0
22 0
23 0
24 0
25 0
26 0
27 0
28 0

@<SCITEGIC>ATOM_PROPERTY
pdb_tempFactor
SciTegic.value.DoubleValue
1 0.00
2 0.00
3 0.00
4 0.00
5 0.00
6 0.00
7 0.00
8 0.00
9 0.00
10 0.00
11 0.00
12 0.00
13 0.00
14 0.00
15 0.00
16 0.00
17 0.00
18 0.00
19 0.00
20 0.00
21 0.00
22 0.00
23 0.00
24 0.00
25 0.00
26 0.00
27 0.00
28 0.00

@<SCITEGIC>ATOM_PROPERTY
pdb_occupancy
SciTegic.value.DoubleValue
1 1.00
2 1.00
3 1.00
4 1.00
5 1.00
6 1.00
7 1.00
8 1.00
9 1.00
10 1.00
11 1.00
12 1.00
13 1.00
14 1.00
15 1.00
16 1.00
17 1.00
18 1.00
19 1.00
20 1.00
21 1.00
22 1.00
23 1.00
24 1.00
25 1.00
26 1.00
27 1.00
28 1.00

