#	Copyright 2023 drugdesign.org
#	Creation time:	2024-01-11T10:52:08Z

@<TRIPOS>MOLECULE
wahou.sd
    5     4     0 0 0
SMALL
USER_CHARGES


@<TRIPOS>ATOM
      1 O1            2.437700    4.399600    0.852800 O.2      1 SUBUNIT   -0.2706
      2 C2            2.671100    4.251000   -0.324300 C.2      1 SUBUNIT    0.2452
      3 H3            2.272200    3.485700   -1.009100 H        1 SUBUNIT    0.1386
      4 O4            3.508600    5.081800   -0.950800 O.3      1 SUBUNIT   -0.3342
      5 H5            3.715000    5.641100   -0.179900 H        1 SUBUNIT    0.2211
@<TRIPOS>BOND
     1    1    2 2
     2    2    3 1
     3    2    4 1
     4    4    5 1
@<SCITEGIC>ATOM_PROPERTY
Formal Charge
SciTegic.value.StringValue
1 0
2 0
3 0
4 0
5 0

@<SCITEGIC>ATOM_PROPERTY
pdb_tempFactor
SciTegic.value.DoubleValue
1 0.00
2 0.00
3 0.00
4 0.00
5 0.00

@<SCITEGIC>ATOM_PROPERTY
pdb_occupancy
SciTegic.value.DoubleValue
1 1.00
2 1.00
3 1.00
4 1.00
5 1.00

#	Copyright 2023 drugdesign.org
#	Creation time:	2024-01-11T10:52:08Z

@<TRIPOS>MOLECULE
wahou.sd
    4     3     0 0 0
SMALL
USER_CHARGES


@<TRIPOS>ATOM
      1 N1           -3.349300    1.536600   -1.009400 N.3      1 SUBUNIT   -0.3437
      2 H2           -4.334400    1.812700   -1.024100 H        1 SUBUNIT    0.1146
      3 H3           -2.981300    1.839400   -1.914800 H        1 SUBUNIT    0.1146
      4 H4           -2.855100    1.988900   -0.243500 H        1 SUBUNIT    0.1146
@<TRIPOS>BOND
     1    1    2 1
     2    1    3 1
     3    1    4 1
@<SCITEGIC>ATOM_PROPERTY
Formal Charge
SciTegic.value.StringValue
1 0
2 0
3 0
4 0

@<SCITEGIC>ATOM_PROPERTY
pdb_tempFactor
SciTegic.value.DoubleValue
1 0.00
2 0.00
3 0.00
4 0.00

@<SCITEGIC>ATOM_PROPERTY
pdb_occupancy
SciTegic.value.DoubleValue
1 1.00
2 1.00
3 1.00
4 1.00

#	Copyright 2023 drugdesign.org
#	Creation time:	2024-01-11T10:52:08Z

@<TRIPOS>MOLECULE
wahou.sd
   11    11     0 0 0
SMALL
USER_CHARGES


@<TRIPOS>ATOM
      1 C1            0.326500   -2.167800    0.907100 C.2      1 SUBUNIT   -0.0622
      2 C2            0.491800   -2.562300   -0.427000 C.2      1 SUBUNIT   -0.0622
      3 C3           -0.171600   -3.687400   -0.924100 C.2      1 SUBUNIT   -0.0622
      4 C4           -1.009500   -4.429100   -0.088000 C.2      1 SUBUNIT   -0.0622
      5 C5           -1.181200   -4.041700    1.244100 C.2      1 SUBUNIT   -0.0622
      6 C6           -0.515600   -2.916600    1.737800 C.2      1 SUBUNIT   -0.0622
      7 H7            1.152200   -1.981100   -1.095800 H        1 SUBUNIT    0.0622
      8 H8           -0.033600   -3.990800   -1.979100 H        1 SUBUNIT    0.0622
      9 H9           -1.534600   -5.319900   -0.478900 H        1 SUBUNIT    0.0622
     10 H10          -1.844600   -4.626200    1.908500 H        1 SUBUNIT    0.0622
     11 H11          -0.662000   -2.622400    2.793400 H        1 SUBUNIT    0.0622
@<TRIPOS>BOND
     1    1    2 2
     2    1    6 1
     3    2    3 1
     4    2    7 1
     5    3    4 2
     6    3    8 1
     7    4    5 1
     8    4    9 1
     9    5    6 2
    10    5   10 1
    11    6   11 1
@<SCITEGIC>ATOM_PROPERTY
Formal Charge
SciTegic.value.StringValue
1 0
2 0
3 0
4 0
5 0
6 0
7 0
8 0
9 0
10 0
11 0

@<SCITEGIC>ATOM_PROPERTY
pdb_tempFactor
SciTegic.value.DoubleValue
1 0.00
2 0.00
3 0.00
4 0.00
5 0.00
6 0.00
7 0.00
8 0.00
9 0.00
10 0.00
11 0.00

@<SCITEGIC>ATOM_PROPERTY
pdb_occupancy
SciTegic.value.DoubleValue
1 1.00
2 1.00
3 1.00
4 1.00
5 1.00
6 1.00
7 1.00
8 1.00
9 1.00
10 1.00
11 1.00

#	Copyright 2023 drugdesign.org
#	Creation time:	2024-01-11T10:52:08Z

@<TRIPOS>MOLECULE
wahou.sd
   34    35     0 0 0
SMALL
USER_CHARGES


@<TRIPOS>ATOM
      1 O1            2.622571    4.149149    0.904809 O.2      1 SUBUNIT   -0.2664
      2 C2            2.855871    4.000549   -0.272291 C.2      1 SUBUNIT    0.2626
      3 C3            2.306171    2.945648   -1.216190 C.3      1 SUBUNIT    0.0587
      4 C4            1.296371    2.051548   -0.530791 C.2      1 SUBUNIT   -0.0375
      5 C5            1.710471    0.886948    0.125009 C.2      1 SUBUNIT   -0.0549
      6 C6            0.786571    0.058848    0.771409 C.2      1 SUBUNIT   -0.0430
      7 C7           -0.566329    0.415148    0.761009 C.2      1 SUBUNIT   -0.0542
      8 C8           -1.000829    1.579449    0.117409 C.2      1 SUBUNIT   -0.0338
      9 C9           -0.061129    2.389249   -0.528391 C.2      1 SUBUNIT   -0.0540
     10 C10          -2.465729    1.952949    0.118309 C.3      1 SUBUNIT    0.0178
     11 N11          -3.164429    1.286149   -0.957391 N.3      1 SUBUNIT   -0.3265
     12 H12          -4.149529    1.562249   -0.972090 H        1 SUBUNIT    0.1187
     13 H13          -2.796429    1.588949   -1.862790 H        1 SUBUNIT    0.1187
     14 C14           1.238171   -1.198551    1.482510 C.3      1 SUBUNIT   -0.0026
     15 C15           0.511371   -2.418252    0.959109 C.2      1 SUBUNIT   -0.0436
     16 C16           0.676671   -2.812752   -0.374991 C.2      1 SUBUNIT   -0.0587
     17 C17           0.013271   -3.937851   -0.872091 C.2      1 SUBUNIT   -0.0620
     18 C18          -0.824729   -4.679551   -0.035991 C.2      1 SUBUNIT   -0.0622
     19 C19          -0.996429   -4.292151    1.296110 C.2      1 SUBUNIT   -0.0620
     20 C20          -0.330729   -3.167151    1.789810 C.2      1 SUBUNIT   -0.0587
     21 O21           3.693471    4.831349   -0.898791 O.3      1 SUBUNIT   -0.3315
     22 H22           3.899871    5.390649   -0.127891 H        1 SUBUNIT    0.2214
     23 H23           3.155471    2.335149   -1.608690 H        1 SUBUNIT    0.0423
     24 H24           1.834471    3.452648   -2.092891 H        1 SUBUNIT    0.0423
     25 H25           2.782471    0.622848    0.132509 H        1 SUBUNIT    0.0629
     26 H26          -1.302429   -0.231352    1.271410 H        1 SUBUNIT    0.0629
     27 H27          -0.393729    3.310549   -1.039290 H        1 SUBUNIT    0.0629
     28 H30           1.070271   -1.059052    2.578209 H        1 SUBUNIT    0.0366
     29 H31           2.333771   -1.368751    1.352910 H        1 SUBUNIT    0.0366
     30 H32           1.337071   -2.231551   -1.043790 H        1 SUBUNIT    0.0626
     31 H33           0.151271   -4.241251   -1.927090 H        1 SUBUNIT    0.0623
     32 H34          -1.349829   -5.570351   -0.426891 H        1 SUBUNIT    0.0623
     33 H35          -1.659729   -4.876651    1.960510 H        1 SUBUNIT    0.0623
     34 H36          -0.477129   -2.872852    2.845409 H        1 SUBUNIT    0.0626
@<TRIPOS>BOND
     1    1    2 2
     2    2    3 1
     3    2   21 1
     4    3    4 1
     5    3   23 1
     6    3   24 1
     7    4    5 2
     8    4    9 1
     9    5    6 1
    10    5   25 1
    11    6    7 2
    12    6   14 1
    13    7    8 1
    14    7   26 1
    15    8    9 2
    16    8   10 1
    17    9   27 1
    18   10   11 1
    19   11   12 1
    20   11   13 1
    21   14   15 1
    22   14   28 1
    23   14   29 1
    24   15   16 2
    25   15   20 1
    26   16   17 1
    27   16   30 1
    28   17   18 2
    29   17   31 1
    30   18   19 1
    31   18   32 1
    32   19   20 2
    33   19   33 1
    34   20   34 1
    35   21   22 1
@<SCITEGIC>ATOM_PROPERTY
Formal Charge
SciTegic.value.StringValue
1 0
2 0
3 0
4 0
5 0
6 0
7 0
8 0
9 0
10 0
11 0
12 0
13 0
14 0
15 0
16 0
17 0
18 0
19 0
20 0
21 0
22 0
23 0
24 0
25 0
26 0
27 0
28 0
29 0
30 0
31 0
32 0
33 0
34 0

@<SCITEGIC>ATOM_PROPERTY
pdb_tempFactor
SciTegic.value.DoubleValue
1 0.00
2 0.00
3 0.00
4 0.00
5 0.00
6 0.00
7 0.00
8 0.00
9 0.00
10 0.00
11 0.00
12 0.00
13 0.00
14 0.00
15 0.00
16 0.00
17 0.00
18 0.00
19 0.00
20 0.00
21 0.00
22 0.00
23 0.00
24 0.00
25 0.00
26 0.00
27 0.00
28 0.00
29 0.00
30 0.00
31 0.00
32 0.00
33 0.00
34 0.00

@<SCITEGIC>ATOM_PROPERTY
pdb_occupancy
SciTegic.value.DoubleValue
1 1.00
2 1.00
3 1.00
4 1.00
5 1.00
6 1.00
7 1.00
8 1.00
9 1.00
10 1.00
11 1.00
12 1.00
13 1.00
14 1.00
15 1.00
16 1.00
17 1.00
18 1.00
19 1.00
20 1.00
21 1.00
22 1.00
23 1.00
24 1.00
25 1.00
26 1.00
27 1.00
28 1.00
29 1.00
30 1.00
31 1.00
32 1.00
33 1.00
34 1.00

