#	Copyright 2023 drugdesign.org
#	Creation time:	2024-01-11T10:52:11Z

@<SCITEGIC>ROOT_PROPERTY
Ligand:MaximumNumberOfAtoms
SciTegic.value.IntegerValue
100

@<SCITEGIC>ROOT_PROPERTY
Ligand:HydrogenAtomsCountTowardsMaximum
SciTegic.value.BooleanValue
FALSE

@<TRIPOS>MOLECULE
anchorage
   16    15     0 0 0
SMALL
USER_CHARGES


@<TRIPOS>ATOM
      1 C2           -1.446800    8.145100   -1.642600 C.3      1 SUBUNIT    0.1389
      2 C3           -2.225300    6.879200   -1.210300 C.2      1 SUBUNIT    0.2292
      3 O4           -1.747400    5.726800   -1.317800 O.2      1 SUBUNIT   -0.2759
      4 N10          -3.445500    7.076300   -0.708300 N.am     1 SUBUNIT   -0.3020
      5 C11          -4.241400    5.931600   -0.287500 C.3      1 SUBUNIT    0.1641
      6 C12          -5.080600    5.308800   -1.478200 C.2      1 SUBUNIT    0.2331
      7 O13          -5.964000    5.978200   -2.026400 O.2      1 SUBUNIT   -0.2755
      8 N22          -4.808300    4.031300   -1.905100 N.am     1 SUBUNIT   -0.3039
      9 C23          -5.577600    3.343800   -3.015400 C.3      1 SUBUNIT    0.1390
     10 C24          -6.685800    2.449900   -2.393600 C.2      1 SUBUNIT    0.2463
     11 O25          -6.481700    1.258000   -2.096400 O.2      1 SUBUNIT   -0.3013
     12 C26          -4.677400    2.578300   -4.026000 C.3      1 SUBUNIT    0.0103
     13 C27          -5.445600    2.218300   -5.334200 C.3      1 SUBUNIT    0.0096
     14 C28          -3.495600    3.495000   -4.403000 C.3      1 SUBUNIT    0.0096
     15 H30          -3.821100    8.023900   -0.618900 H        1 SUBUNIT    0.1502
     16 H32          -4.046700    3.521700   -1.447600 H        1 SUBUNIT    0.1502
@<TRIPOS>BOND
     1    1    2 1
     2    2    3 2
     3    2    4 1
     4    4    5 1
     5    4   15 1
     6    5    6 1
     7    6    7 2
     8    6    8 1
     9    8    9 1
    10    8   16 1
    11    9   10 1
    12    9   12 1
    13   10   11 2
    14   12   13 1
    15   12   14 1
@<SCITEGIC>ATOM_PROPERTY
Formal Charge
SciTegic.value.StringValue
1 0
2 0
3 0
4 0
5 0
6 0
7 0
8 0
9 0
10 0
11 0
12 0
13 0
14 0
15 0
16 0

@<SCITEGIC>ATOM_PROPERTY
pdb_tempFactor
SciTegic.value.DoubleValue
1 0.00
2 0.00
3 0.00
4 0.00
5 0.00
6 0.00
7 0.00
8 0.00
9 0.00
10 0.00
11 0.00
12 0.00
13 0.00
14 0.00
15 0.00
16 0.00

@<SCITEGIC>ATOM_PROPERTY
pdb_occupancy
SciTegic.value.DoubleValue
1 1.00
2 1.00
3 1.00
4 1.00
5 1.00
6 1.00
7 1.00
8 1.00
9 1.00
10 1.00
11 1.00
12 1.00
13 1.00
14 1.00
15 1.00
16 1.00

#	Copyright 2023 drugdesign.org
#	Creation time:	2024-01-11T10:52:11Z

@<SCITEGIC>ROOT_PROPERTY
Ligand:MaximumNumberOfAtoms
SciTegic.value.IntegerValue
100

@<SCITEGIC>ROOT_PROPERTY
Ligand:HydrogenAtomsCountTowardsMaximum
SciTegic.value.BooleanValue
FALSE

@<TRIPOS>MOLECULE
atp
   35    37     0 0 0
SMALL
USER_CHARGES


@<TRIPOS>ATOM
      1 P1            6.119200   -8.091100    1.050300 P.3      1 SUBUNIT    0.4781
      2 O2            6.237100   -9.224700    2.009700 O.2      1 SUBUNIT   -0.2278
      3 O3            5.204100   -8.428700   -0.148800 O.3      1 SUBUNIT   -0.0789
      4 O4            7.428000   -7.738600    0.523400 O.3      1 SUBUNIT   -0.0789
      5 P5            6.192700   -5.414100    2.470200 P.3      1 SUBUNIT    0.4896
      6 O6            7.012500   -4.831300    1.381500 O.2      1 SUBUNIT   -0.2271
      7 O7            6.833900   -5.576100    3.836100 O.3      1 SUBUNIT   -0.0784
      8 O8            5.571600   -6.786800    1.898600 O.3      1 SUBUNIT   -0.1845
      9 P9            3.972000   -3.914500    1.358700 P.3      1 SUBUNIT    0.4808
     10 O10           4.710600   -2.799500    0.728100 O.2      1 SUBUNIT   -0.2276
     11 O11           3.591900   -5.016600    0.396400 O.3      1 SUBUNIT   -0.0787
     12 O12           4.890200   -4.520300    2.561500 O.3      1 SUBUNIT   -0.1844
     13 O13           2.645900   -3.447800    2.167700 O.3      1 SUBUNIT   -0.2838
     14 C14           1.792800   -4.571600    2.585200 C.3      1 SUBUNIT    0.2079
     15 C15           0.301500   -4.392500    2.217000 C.3      1 SUBUNIT    0.1780
     16 O16          -0.064400   -2.994300    2.475700 O.3      1 SUBUNIT   -0.3510
     17 C17          -0.091200   -4.556300    0.731100 C.3      1 SUBUNIT    0.1781
     18 O18          -0.133100   -5.918800    0.283800 O.3      1 SUBUNIT   -0.3874
     19 C19          -1.467000   -3.817700    0.717000 C.3      1 SUBUNIT    0.1901
     20 O20          -2.581400   -4.586700    1.205100 O.3      1 SUBUNIT   -0.3861
     21 C21          -1.214000   -2.645700    1.662400 C.3      1 SUBUNIT    0.2315
     22 N22          -0.913900   -1.354000    0.964700 N.ar     1 SUBUNIT   -0.1871
     23 C23           0.379800   -1.034500    0.591600 C.ar     1 SUBUNIT    0.1779
     24 N24           0.505300    0.154000    0.005300 N.ar     1 SUBUNIT   -0.2377
     25 C25          -0.784400    0.682100    0.037900 C.ar     1 SUBUNIT    0.1383
     26 C26          -1.332100    1.939200   -0.403500 C.ar     1 SUBUNIT    0.1337
     27 N27          -0.606300    2.920300   -1.025500 N.pl3    1 SUBUNIT   -0.2849
     28 N28          -2.687700    2.098900   -0.274600 N.ar     1 SUBUNIT   -0.2228
     29 C29          -3.437900    1.125100    0.352300 C.ar     1 SUBUNIT    0.2252
     30 N30          -3.028600   -0.066700    0.828600 N.ar     1 SUBUNIT   -0.2219
     31 C31          -1.698200   -0.288800    0.522300 C.ar     1 SUBUNIT    0.1466
     32 H32          -0.384800   -5.906900   -0.643400 H        1 SUBUNIT    0.2107
     33 H33          -2.652800   -5.356200    0.637800 H        1 SUBUNIT    0.2108
     34 H34           0.393800    2.758500   -1.192500 H        1 SUBUNIT    0.1259
     35 H35          -1.050500    3.793900   -1.316900 H        1 SUBUNIT    0.1259
@<TRIPOS>BOND
     1    1    2 2
     2    1    3 1
     3    1    4 1
     4    1    8 1
     5    5    6 2
     6    5    7 1
     7    5    8 1
     8    5   12 1
     9    9   10 2
    10    9   11 1
    11    9   12 1
    12    9   13 1
    13   13   14 1
    14   14   15 1
    15   15   16 1
    16   15   17 1
    17   16   21 1
    18   17   18 1
    19   17   19 1
    20   18   32 1
    21   19   20 1
    22   19   21 1
    23   20   33 1
    24   21   22 1
    25   22   23 ar
    26   22   31 ar
    27   23   24 ar
    28   24   25 ar
    29   25   26 ar
    30   25   31 ar
    31   26   27 1
    32   26   28 ar
    33   27   34 1
    34   27   35 1
    35   28   29 ar
    36   29   30 ar
    37   30   31 ar
@<SCITEGIC>ATOM_PROPERTY
Formal Charge
SciTegic.value.StringValue
1 0
2 0
3 0
4 0
5 0
6 0
7 0
8 0
9 0
10 0
11 0
12 0
13 0
14 0
15 0
16 0
17 0
18 0
19 0
20 0
21 0
22 0
23 0
24 0
25 0
26 0
27 0
28 0
29 0
30 0
31 0
32 0
33 0
34 0
35 0

@<SCITEGIC>ATOM_PROPERTY
pdb_tempFactor
SciTegic.value.DoubleValue
1 0.00
2 0.00
3 0.00
4 0.00
5 0.00
6 0.00
7 0.00
8 0.00
9 0.00
10 0.00
11 0.00
12 0.00
13 0.00
14 0.00
15 0.00
16 0.00
17 0.00
18 0.00
19 0.00
20 0.00
21 0.00
22 0.00
23 0.00
24 0.00
25 0.00
26 0.00
27 0.00
28 0.00
29 0.00
30 0.00
31 0.00
32 0.00
33 0.00
34 0.00
35 0.00

@<SCITEGIC>ATOM_PROPERTY
pdb_occupancy
SciTegic.value.DoubleValue
1 1.00
2 1.00
3 1.00
4 1.00
5 1.00
6 1.00
7 1.00
8 1.00
9 1.00
10 1.00
11 1.00
12 1.00
13 1.00
14 1.00
15 1.00
16 1.00
17 1.00
18 1.00
19 1.00
20 1.00
21 1.00
22 1.00
23 1.00
24 1.00
25 1.00
26 1.00
27 1.00
28 1.00
29 1.00
30 1.00
31 1.00
32 1.00
33 1.00
34 1.00
35 1.00

#	Copyright 2023 drugdesign.org
#	Creation time:	2024-01-11T10:52:11Z

@<SCITEGIC>ROOT_PROPERTY
Ligand:MaximumNumberOfAtoms
SciTegic.value.IntegerValue
100

@<SCITEGIC>ROOT_PROPERTY
Ligand:HydrogenAtomsCountTowardsMaximum
SciTegic.value.BooleanValue
FALSE

@<TRIPOS>MOLECULE
CGP
   28    31     0 0 0
SMALL
USER_CHARGES


@<TRIPOS>ATOM
      1 H1           -0.706600    3.973800   -1.445500 H        1 SUBUNIT    0.1593
      2 N2           -0.343100    3.173800   -1.137500 N.am     1 SUBUNIT   -0.2475
      3 C3           -1.132800    2.195200   -0.549900 C.2      1 SUBUNIT    0.2505
      4 C4           -0.149600    1.095200   -0.214200 C.ar     1 SUBUNIT    0.0517
      5 C5            1.131600    1.522200   -0.628000 C.ar     1 SUBUNIT    0.0517
      6 C6            1.017800    2.895800   -1.243600 C.2      1 SUBUNIT    0.2505
      7 O7            1.904700    3.633600   -1.738400 O.2      1 SUBUNIT   -0.2714
      8 O8           -2.374800    2.246100   -0.359100 O.2      1 SUBUNIT   -0.2714
      9 C9           -0.342400   -0.181600    0.411300 C.ar     1 SUBUNIT    0.0360
     10 C10           0.822700   -1.020800    0.608400 C.ar     1 SUBUNIT    0.0383
     11 C11           2.144900   -0.592800    0.189200 C.ar     1 SUBUNIT    0.0383
     12 C12           2.299900    0.700000   -0.444300 C.ar     1 SUBUNIT    0.0360
     13 N13           3.333400   -1.487800    0.384500 N.pl3    1 SUBUNIT   -0.2576
     14 H14           3.214900   -2.331200    0.745400 H        1 SUBUNIT    0.1343
     15 C15           4.709200   -1.076600    0.018700 C.ar     1 SUBUNIT    0.0189
     16 C16           5.677900   -2.093900   -0.340700 C.ar     1 SUBUNIT    0.0201
     17 C17           7.015100   -1.723600   -0.692700 C.ar     1 SUBUNIT    0.0016
     18 C18           7.379600   -0.331300   -0.682600 C.ar     1 SUBUNIT    0.0001
     19 C19           6.422000    0.691300   -0.322700 C.ar     1 SUBUNIT    0.0016
     20 C20           5.086800    0.318900    0.031200 C.ar     1 SUBUNIT    0.0201
     21 N21           0.697200   -2.362300    1.259900 N.pl3    1 SUBUNIT   -0.2576
     22 H22           1.456500   -2.763800    1.611000 H        1 SUBUNIT    0.1343
     23 C23          -0.587500   -3.091600    1.361800 C.ar     1 SUBUNIT    0.0189
     24 C24          -0.914900   -3.776600    2.602400 C.ar     1 SUBUNIT    0.0201
     25 C25          -2.149800   -4.489500    2.713200 C.ar     1 SUBUNIT    0.0016
     26 C26          -3.052800   -4.528800    1.589500 C.ar     1 SUBUNIT    0.0001
     27 C27          -2.728300   -3.851100    0.348600 C.ar     1 SUBUNIT    0.0016
     28 C28          -1.493500   -3.134600    0.236800 C.ar     1 SUBUNIT    0.0201
@<TRIPOS>BOND
     1    1    2 1
     2    2    3 1
     3    2    6 1
     4    3    4 1
     5    3    8 2
     6    4    5 ar
     7    4    9 ar
     8    5    6 1
     9    5   12 ar
    10    6    7 2
    11    9   10 ar
    12   10   11 ar
    13   10   21 1
    14   11   12 ar
    15   11   13 1
    16   13   14 1
    17   13   15 1
    18   15   16 ar
    19   15   20 ar
    20   16   17 ar
    21   17   18 ar
    22   18   19 ar
    23   19   20 ar
    24   21   22 1
    25   21   23 1
    26   23   24 ar
    27   23   28 ar
    28   24   25 ar
    29   25   26 ar
    30   26   27 ar
    31   27   28 ar
@<SCITEGIC>ATOM_PROPERTY
Formal Charge
SciTegic.value.StringValue
1 0
2 0
3 0
4 0
5 0
6 0
7 0
8 0
9 0
10 0
11 0
12 0
13 0
14 0
15 0
16 0
17 0
18 0
19 0
20 0
21 0
22 0
23 0
24 0
25 0
26 0
27 0
28 0

@<SCITEGIC>ATOM_PROPERTY
pdb_tempFactor
SciTegic.value.DoubleValue
1 0.00
2 0.00
3 0.00
4 0.00
5 0.00
6 0.00
7 0.00
8 0.00
9 0.00
10 0.00
11 0.00
12 0.00
13 0.00
14 0.00
15 0.00
16 0.00
17 0.00
18 0.00
19 0.00
20 0.00
21 0.00
22 0.00
23 0.00
24 0.00
25 0.00
26 0.00
27 0.00
28 0.00

@<SCITEGIC>ATOM_PROPERTY
pdb_occupancy
SciTegic.value.DoubleValue
1 1.00
2 1.00
3 1.00
4 1.00
5 1.00
6 1.00
7 1.00
8 1.00
9 1.00
10 1.00
11 1.00
12 1.00
13 1.00
14 1.00
15 1.00
16 1.00
17 1.00
18 1.00
19 1.00
20 1.00
21 1.00
22 1.00
23 1.00
24 1.00
25 1.00
26 1.00
27 1.00
28 1.00

#	Copyright 2023 drugdesign.org
#	Creation time:	2024-01-11T10:52:11Z

@<SCITEGIC>ROOT_PROPERTY
Ligand:MaximumNumberOfAtoms
SciTegic.value.IntegerValue
100

@<SCITEGIC>ROOT_PROPERTY
Ligand:HydrogenAtomsCountTowardsMaximum
SciTegic.value.BooleanValue
FALSE

@<TRIPOS>MOLECULE
staurosporine
   37    44     0 0 0
SMALL
USER_CHARGES


@<TRIPOS>ATOM
      1 H1           -0.936500    4.038500   -1.167600 H        1 SUBUNIT    0.1500
      2 N2           -0.575700    3.244600   -0.920300 N.am     1 SUBUNIT   -0.3071
      3 C3           -1.340700    2.250800   -0.406600 C.2      1 SUBUNIT    0.2442
      4 C4           -0.359900    1.192700   -0.057200 C.ar     1 SUBUNIT    0.0521
      5 C5            0.924600    1.611900   -0.434700 C.ar     1 SUBUNIT   -0.0080
      6 C6            0.881800    3.001700   -1.056500 C.3      1 SUBUNIT    0.1417
      7 O7           -2.563500    2.313800   -0.296700 O.2      1 SUBUNIT   -0.2719
      8 C8           -0.533800   -0.075700    0.556800 C.ar     1 SUBUNIT    0.0164
      9 C9            0.593500   -0.890700    0.753900 C.ar     1 SUBUNIT    0.0522
     10 C10           1.885500   -0.473200    0.366200 C.ar     1 SUBUNIT    0.0521
     11 C11           2.048100    0.786700   -0.223100 C.ar     1 SUBUNIT    0.0091
     12 C12           3.421300    0.962600   -0.488400 C.ar     1 SUBUNIT    0.0023
     13 C13           4.114900   -0.177300   -0.061900 C.ar     1 SUBUNIT    0.0325
     14 N14           3.163600   -1.173300    0.480800 N.ar     1 SUBUNIT   -0.2102
     15 C15           4.091300    2.059200   -1.064800 C.ar     1 SUBUNIT    0.0103
     16 C16           5.496000    1.998000   -1.200400 C.ar     1 SUBUNIT    0.0008
     17 C17           6.207100    0.862300   -0.763400 C.ar     1 SUBUNIT    0.0017
     18 C18           5.520400   -0.230400   -0.186500 C.ar     1 SUBUNIT    0.0211
     19 N19           0.218700   -2.135600    1.382500 N.ar     1 SUBUNIT   -0.2149
     20 C20          -1.223100   -2.035000    1.549000 C.ar     1 SUBUNIT    0.0322
     21 C21          -1.665900   -0.793100    1.063900 C.ar     1 SUBUNIT    0.0027
     22 C22          -3.034400   -0.460300    1.132300 C.ar     1 SUBUNIT    0.0103
     23 C23          -3.934200   -1.398900    1.690000 C.ar     1 SUBUNIT    0.0008
     24 C24          -3.483200   -2.645900    2.168900 C.ar     1 SUBUNIT    0.0017
     25 C25          -2.113300   -2.977100    2.102300 C.ar     1 SUBUNIT    0.0211
     26 C26           1.063800   -3.293900    1.630000 C.3      1 SUBUNIT    0.2014
     27 O27           2.222900   -3.410700    0.752400 O.3      1 SUBUNIT   -0.3381
     28 C28           3.370100   -2.542200    1.034700 C.3      1 SUBUNIT    0.1566
     29 C29           1.437100   -3.481700    3.136600 C.3      1 SUBUNIT    0.0709
     30 C30           2.971200   -3.645600    3.355700 C.3      1 SUBUNIT    0.0904
     31 C31           3.705100   -2.496600    2.586300 C.3      1 SUBUNIT    0.1821
     32 C32           4.484700   -3.322900    0.271800 C.3      1 SUBUNIT    0.0642
     33 N33           3.378900   -3.725700    4.801800 N.3      1 SUBUNIT   -0.3142
     34 H34           4.336700   -3.777900    4.851200 H        1 SUBUNIT    0.1223
     35 C35           2.816100   -4.906900    5.517900 C.3      1 SUBUNIT    0.1013
     36 O36           3.430200   -1.193200    3.180300 O.3      1 SUBUNIT   -0.3753
     37 C37           4.501100   -0.685200    4.022500 C.3      1 SUBUNIT    0.1951
@<TRIPOS>BOND
     1    1    2 1
     2    2    3 1
     3    2    6 1
     4    3    4 1
     5    3    7 2
     6    4    5 ar
     7    4    8 ar
     8    5    6 1
     9    5   11 ar
    10    8    9 ar
    11    8   21 ar
    12    9   10 ar
    13    9   19 ar
    14   10   11 ar
    15   10   14 ar
    16   11   12 ar
    17   12   13 ar
    18   12   15 ar
    19   13   14 ar
    20   13   18 ar
    21   14   28 1
    22   15   16 ar
    23   16   17 ar
    24   17   18 ar
    25   19   20 ar
    26   19   26 1
    27   20   21 ar
    28   20   25 ar
    29   21   22 ar
    30   22   23 ar
    31   23   24 ar
    32   24   25 ar
    33   26   27 1
    34   26   29 1
    35   27   28 1
    36   28   31 1
    37   28   32 1
    38   29   30 1
    39   30   31 1
    40   30   33 1
    41   31   36 1
    42   33   34 1
    43   33   35 1
    44   36   37 1
@<SCITEGIC>ATOM_PROPERTY
Formal Charge
SciTegic.value.StringValue
1 0
2 0
3 0
4 0
5 0
6 0
7 0
8 0
9 0
10 0
11 0
12 0
13 0
14 0
15 0
16 0
17 0
18 0
19 0
20 0
21 0
22 0
23 0
24 0
25 0
26 0
27 0
28 0
29 0
30 0
31 0
32 0
33 0
34 0
35 0
36 0
37 0

@<SCITEGIC>ATOM_PROPERTY
pdb_tempFactor
SciTegic.value.DoubleValue
1 0.00
2 0.00
3 0.00
4 0.00
5 0.00
6 0.00
7 0.00
8 0.00
9 0.00
10 0.00
11 0.00
12 0.00
13 0.00
14 0.00
15 0.00
16 0.00
17 0.00
18 0.00
19 0.00
20 0.00
21 0.00
22 0.00
23 0.00
24 0.00
25 0.00
26 0.00
27 0.00
28 0.00
29 0.00
30 0.00
31 0.00
32 0.00
33 0.00
34 0.00
35 0.00
36 0.00
37 0.00

@<SCITEGIC>ATOM_PROPERTY
pdb_occupancy
SciTegic.value.DoubleValue
1 1.00
2 1.00
3 1.00
4 1.00
5 1.00
6 1.00
7 1.00
8 1.00
9 1.00
10 1.00
11 1.00
12 1.00
13 1.00
14 1.00
15 1.00
16 1.00
17 1.00
18 1.00
19 1.00
20 1.00
21 1.00
22 1.00
23 1.00
24 1.00
25 1.00
26 1.00
27 1.00
28 1.00
29 1.00
30 1.00
31 1.00
32 1.00
33 1.00
34 1.00
35 1.00
36 1.00
37 1.00

#	Copyright 2023 drugdesign.org
#	Creation time:	2024-01-11T10:52:11Z

@<SCITEGIC>ROOT_PROPERTY
Ligand:MaximumNumberOfAtoms
SciTegic.value.IntegerValue
100

@<SCITEGIC>ROOT_PROPERTY
Ligand:HydrogenAtomsCountTowardsMaximum
SciTegic.value.BooleanValue
FALSE

@<TRIPOS>MOLECULE
pyrrolo
   21    23     0 0 0
SMALL
USER_CHARGES


@<TRIPOS>ATOM
      1 H1           -0.770064    4.024537   -1.338853 H        1 SUBUNIT    0.1355
      2 C2           -0.562000    1.045800   -0.056300 C.ar     1 SUBUNIT    0.0532
      3 C3           -1.183200   -0.067400    0.548300 C.ar     1 SUBUNIT    0.1223
      4 N4           -2.529100    0.003900    0.757000 N.ar     1 SUBUNIT   -0.2239
      5 C5           -3.260300    1.101600    0.396800 C.ar     1 SUBUNIT    0.2251
      6 N6           -2.682000    2.183300   -0.183500 N.ar     1 SUBUNIT   -0.2239
      7 C7            0.872300    1.320500   -0.438900 C.ar     1 SUBUNIT   -0.0235
      8 C8            0.851500    2.566700   -0.989200 C.ar     1 SUBUNIT   -0.0022
      9 N9           -0.496700    3.127300   -0.992100 N.ar     1 SUBUNIT   -0.2461
     10 C10          -1.347000    2.146200   -0.404300 C.ar     1 SUBUNIT    0.1221
     11 C11           1.953700    3.441200   -1.579400 C.3      1 SUBUNIT    0.0580
     12 C12           2.043700    0.350600   -0.226000 C.3      1 SUBUNIT    0.0464
     13 N13          -0.425500   -1.252300    0.958200 N.pl3    1 SUBUNIT   -0.2424
     14 C14          -1.020000   -2.589500    1.026900 C.ar     1 SUBUNIT    0.0212
     15 C15          -2.030000   -2.942400    0.090900 C.ar     1 SUBUNIT    0.0202
     16 C16          -2.622400   -4.224900    0.126700 C.ar     1 SUBUNIT    0.0028
     17 C17          -2.207000   -5.160000    1.102900 C.ar     1 SUBUNIT    0.0156
     18 C18          -1.204200   -4.812000    2.044700 C.ar     1 SUBUNIT    0.0191
     19 C19          -0.613600   -3.528500    2.010100 C.ar     1 SUBUNIT    0.0356
     20 Br20         -0.666400   -6.032800    3.321300 Br       1 SUBUNIT   -0.0508
     21 H21           0.556900   -1.141100    1.207900 H        1 SUBUNIT    0.1358
@<TRIPOS>BOND
     1    1    9 1
     2    2   10 ar
     3    2    3 ar
     4    2    7 ar
     5    3    4 ar
     6    3   13 1
     7    4    5 ar
     8    5    6 ar
     9    6   10 ar
    10    7    8 ar
    11    7   12 1
    12    8    9 ar
    13    8   11 1
    14    9   10 ar
    15   13   14 1
    16   13   21 1
    17   14   15 ar
    18   14   19 ar
    19   15   16 ar
    20   16   17 ar
    21   17   18 ar
    22   18   19 ar
    23   18   20 1
@<SCITEGIC>ATOM_PROPERTY
Formal Charge
SciTegic.value.StringValue
1 0
2 0
3 0
4 0
5 0
6 0
7 0
8 0
9 0
10 0
11 0
12 0
13 0
14 0
15 0
16 0
17 0
18 0
19 0
20 0
21 0

@<SCITEGIC>ATOM_PROPERTY
pdb_tempFactor
SciTegic.value.DoubleValue
1 0.00
2 0.00
3 0.00
4 0.00
5 0.00
6 0.00
7 0.00
8 0.00
9 0.00
10 0.00
11 0.00
12 0.00
13 0.00
14 0.00
15 0.00
16 0.00
17 0.00
18 0.00
19 0.00
20 0.00
21 0.00

@<SCITEGIC>ATOM_PROPERTY
pdb_occupancy
SciTegic.value.DoubleValue
1 1.00
2 1.00
3 1.00
4 1.00
5 1.00
6 1.00
7 1.00
8 1.00
9 1.00
10 1.00
11 1.00
12 1.00
13 1.00
14 1.00
15 1.00
16 1.00
17 1.00
18 1.00
19 1.00
20 1.00
21 1.00

