#	Copyright 2023 drugdesign.org
#	Creation time:	2024-01-11T10:52:10Z

@<TRIPOS>MOLECULE
CGP
   28    31     0 0 0
SMALL
USER_CHARGES


@<TRIPOS>ATOM
      1 H1           -0.706600    3.973800   -1.445500 H        1 SUBUNIT    0.1593
      2 N2           -0.343100    3.173800   -1.137500 N.am     1 SUBUNIT   -0.2475
      3 C3           -1.132800    2.195200   -0.549900 C.2      1 SUBUNIT    0.2505
      4 C4           -0.149600    1.095200   -0.214200 C.ar     1 SUBUNIT    0.0517
      5 C5            1.131600    1.522200   -0.628000 C.ar     1 SUBUNIT    0.0517
      6 C6            1.017800    2.895800   -1.243600 C.2      1 SUBUNIT    0.2505
      7 O7            1.904700    3.633600   -1.738400 O.2      1 SUBUNIT   -0.2714
      8 O8           -2.374800    2.246100   -0.359100 O.2      1 SUBUNIT   -0.2714
      9 C9           -0.342400   -0.181600    0.411300 C.ar     1 SUBUNIT    0.0360
     10 C10           0.822700   -1.020800    0.608400 C.ar     1 SUBUNIT    0.0383
     11 C11           2.144900   -0.592800    0.189200 C.ar     1 SUBUNIT    0.0383
     12 C12           2.299900    0.700000   -0.444300 C.ar     1 SUBUNIT    0.0360
     13 N13           3.333400   -1.487800    0.384500 N.pl3    1 SUBUNIT   -0.2576
     14 H14           3.214900   -2.331200    0.745400 H        1 SUBUNIT    0.1343
     15 C15           4.709200   -1.076600    0.018700 C.ar     1 SUBUNIT    0.0189
     16 C16           5.677900   -2.093900   -0.340700 C.ar     1 SUBUNIT    0.0201
     17 C17           7.015100   -1.723600   -0.692700 C.ar     1 SUBUNIT    0.0016
     18 C18           7.379600   -0.331300   -0.682600 C.ar     1 SUBUNIT    0.0001
     19 C19           6.422000    0.691300   -0.322700 C.ar     1 SUBUNIT    0.0016
     20 C20           5.086800    0.318900    0.031200 C.ar     1 SUBUNIT    0.0201
     21 N21           0.697200   -2.362300    1.259900 N.pl3    1 SUBUNIT   -0.2576
     22 H22           1.456500   -2.763800    1.611000 H        1 SUBUNIT    0.1343
     23 C23          -0.587500   -3.091600    1.361800 C.ar     1 SUBUNIT    0.0189
     24 C24          -0.914900   -3.776600    2.602400 C.ar     1 SUBUNIT    0.0201
     25 C25          -2.149800   -4.489500    2.713200 C.ar     1 SUBUNIT    0.0016
     26 C26          -3.052800   -4.528800    1.589500 C.ar     1 SUBUNIT    0.0001
     27 C27          -2.728300   -3.851100    0.348600 C.ar     1 SUBUNIT    0.0016
     28 C28          -1.493500   -3.134600    0.236800 C.ar     1 SUBUNIT    0.0201
@<TRIPOS>BOND
     1    1    2 1
     2    2    3 1
     3    2    6 1
     4    3    4 1
     5    3    8 2
     6    4    5 ar
     7    4    9 ar
     8    5    6 1
     9    5   12 ar
    10    6    7 2
    11    9   10 ar
    12   10   11 ar
    13   10   21 1
    14   11   12 ar
    15   11   13 1
    16   13   14 1
    17   13   15 1
    18   15   16 ar
    19   15   20 ar
    20   16   17 ar
    21   17   18 ar
    22   18   19 ar
    23   19   20 ar
    24   21   22 1
    25   21   23 1
    26   23   24 ar
    27   23   28 ar
    28   24   25 ar
    29   25   26 ar
    30   26   27 ar
    31   27   28 ar
@<SCITEGIC>ATOM_PROPERTY
Formal Charge
SciTegic.value.StringValue
1 0
2 0
3 0
4 0
5 0
6 0
7 0
8 0
9 0
10 0
11 0
12 0
13 0
14 0
15 0
16 0
17 0
18 0
19 0
20 0
21 0
22 0
23 0
24 0
25 0
26 0
27 0
28 0

@<SCITEGIC>ATOM_PROPERTY
pdb_tempFactor
SciTegic.value.DoubleValue
1 0.00
2 0.00
3 0.00
4 0.00
5 0.00
6 0.00
7 0.00
8 0.00
9 0.00
10 0.00
11 0.00
12 0.00
13 0.00
14 0.00
15 0.00
16 0.00
17 0.00
18 0.00
19 0.00
20 0.00
21 0.00
22 0.00
23 0.00
24 0.00
25 0.00
26 0.00
27 0.00
28 0.00

@<SCITEGIC>ATOM_PROPERTY
pdb_occupancy
SciTegic.value.DoubleValue
1 1.00
2 1.00
3 1.00
4 1.00
5 1.00
6 1.00
7 1.00
8 1.00
9 1.00
10 1.00
11 1.00
12 1.00
13 1.00
14 1.00
15 1.00
16 1.00
17 1.00
18 1.00
19 1.00
20 1.00
21 1.00
22 1.00
23 1.00
24 1.00
25 1.00
26 1.00
27 1.00
28 1.00

