#	Copyright 2023 drugdesign.org
#	Creation time:	2024-01-11T10:51:48Z

@<SCITEGIC>ROOT_PROPERTY
Ligand:MaximumNumberOfAtoms
SciTegic.value.IntegerValue
100

@<SCITEGIC>ROOT_PROPERTY
Ligand:HydrogenAtomsCountTowardsMaximum
SciTegic.value.BooleanValue
FALSE

@<TRIPOS>MOLECULE
staurosporine
   37    44     0 0 0
SMALL
USER_CHARGES


@<TRIPOS>ATOM
      1 H1           -0.695626    3.958011   -1.146518 H        1 SUBUNIT    0.1500
      2 N2           -0.334826    3.164111   -0.899218 N.am     1 SUBUNIT   -0.3071
      3 C3           -1.099826    2.170311   -0.385518 C.2      1 SUBUNIT    0.2442
      4 C4           -0.119026    1.112213   -0.036118 C.ar     1 SUBUNIT    0.0521
      5 C5            1.165474    1.531413   -0.413618 C.ar     1 SUBUNIT   -0.0080
      6 C6            1.122674    2.921211   -1.035418 C.3      1 SUBUNIT    0.1417
      7 O7           -2.322628    2.233311   -0.275618 O.2      1 SUBUNIT   -0.2719
      8 C8           -0.292926   -0.156187    0.577882 C.ar     1 SUBUNIT    0.0164
      9 C9            0.834374   -0.971188    0.774982 C.ar     1 SUBUNIT    0.0522
     10 C10           2.126373   -0.553687    0.387282 C.ar     1 SUBUNIT    0.0521
     11 C11           2.288972    0.706212   -0.202018 C.ar     1 SUBUNIT    0.0091
     12 C12           3.662172    0.882112   -0.467318 C.ar     1 SUBUNIT    0.0023
     13 C13           4.355773   -0.257787   -0.040818 C.ar     1 SUBUNIT    0.0325
     14 N14           3.404472   -1.253787    0.501882 N.ar     1 SUBUNIT   -0.2102
     15 C15           4.332173    1.978711   -1.043718 C.ar     1 SUBUNIT    0.0103
     16 C16           5.736873    1.917512   -1.179318 C.ar     1 SUBUNIT    0.0008
     17 C17           6.447973    0.781812   -0.742318 C.ar     1 SUBUNIT    0.0017
     18 C18           5.761273   -0.310887   -0.165418 C.ar     1 SUBUNIT    0.0211
     19 N19           0.459574   -2.216089    1.403582 N.ar     1 SUBUNIT   -0.2149
     20 C20          -0.982226   -2.115488    1.570082 C.ar     1 SUBUNIT    0.0322
     21 C21          -1.425026   -0.873588    1.084982 C.ar     1 SUBUNIT    0.0027
     22 C22          -2.793528   -0.540787    1.153382 C.ar     1 SUBUNIT    0.0103
     23 C23          -3.693328   -1.479387    1.711082 C.ar     1 SUBUNIT    0.0008
     24 C24          -3.242328   -2.726389    2.189981 C.ar     1 SUBUNIT    0.0017
     25 C25          -1.872427   -3.057589    2.123381 C.ar     1 SUBUNIT    0.0211
     26 C26           1.304674   -3.374389    1.651082 C.3      1 SUBUNIT    0.2014
     27 O27           2.463772   -3.491189    0.773482 O.3      1 SUBUNIT   -0.3381
     28 C28           3.610972   -2.622689    1.055782 C.3      1 SUBUNIT    0.1566
     29 C29           1.677974   -3.562189    3.157681 C.3      1 SUBUNIT    0.0709
     30 C30           3.212072   -3.726089    3.376781 C.3      1 SUBUNIT    0.0904
     31 C31           3.945972   -2.577089    2.607381 C.3      1 SUBUNIT    0.1821
     32 C32           4.725574   -3.403389    0.292882 C.3      1 SUBUNIT    0.0642
     33 N33           3.619772   -3.806189    4.822886 N.3      1 SUBUNIT   -0.3142
     34 H34           4.577573   -3.858389    4.872286 H        1 SUBUNIT    0.1223
     35 C35           3.056972   -4.987388    5.538986 C.3      1 SUBUNIT    0.1013
     36 O36           3.671072   -1.273687    3.201381 O.3      1 SUBUNIT   -0.3753
     37 C37           4.741973   -0.765688    4.043582 C.3      1 SUBUNIT    0.1951
@<TRIPOS>BOND
     1    1    2 1
     2    2    3 1
     3    2    6 1
     4    3    4 1
     5    3    7 2
     6    4    5 ar
     7    4    8 ar
     8    5    6 1
     9    5   11 ar
    10    8    9 ar
    11    8   21 ar
    12    9   10 ar
    13    9   19 ar
    14   10   11 ar
    15   10   14 ar
    16   11   12 ar
    17   12   13 ar
    18   12   15 ar
    19   13   14 ar
    20   13   18 ar
    21   14   28 1
    22   15   16 ar
    23   16   17 ar
    24   17   18 ar
    25   19   20 ar
    26   19   26 1
    27   20   21 ar
    28   20   25 ar
    29   21   22 ar
    30   22   23 ar
    31   23   24 ar
    32   24   25 ar
    33   26   27 1
    34   26   29 1
    35   27   28 1
    36   28   31 1
    37   28   32 1
    38   29   30 1
    39   30   31 1
    40   30   33 1
    41   31   36 1
    42   33   34 1
    43   33   35 1
    44   36   37 1
@<SCITEGIC>ATOM_PROPERTY
Formal Charge
SciTegic.value.StringValue
1 0
2 0
3 0
4 0
5 0
6 0
7 0
8 0
9 0
10 0
11 0
12 0
13 0
14 0
15 0
16 0
17 0
18 0
19 0
20 0
21 0
22 0
23 0
24 0
25 0
26 0
27 0
28 0
29 0
30 0
31 0
32 0
33 0
34 0
35 0
36 0
37 0

@<SCITEGIC>ATOM_PROPERTY
pdb_tempFactor
SciTegic.value.DoubleValue
1 0.00
2 0.00
3 0.00
4 0.00
5 0.00
6 0.00
7 0.00
8 0.00
9 0.00
10 0.00
11 0.00
12 0.00
13 0.00
14 0.00
15 0.00
16 0.00
17 0.00
18 0.00
19 0.00
20 0.00
21 0.00
22 0.00
23 0.00
24 0.00
25 0.00
26 0.00
27 0.00
28 0.00
29 0.00
30 0.00
31 0.00
32 0.00
33 0.00
34 0.00
35 0.00
36 0.00
37 0.00

@<SCITEGIC>ATOM_PROPERTY
pdb_occupancy
SciTegic.value.DoubleValue
1 1.00
2 1.00
3 1.00
4 1.00
5 1.00
6 1.00
7 1.00
8 1.00
9 1.00
10 1.00
11 1.00
12 1.00
13 1.00
14 1.00
15 1.00
16 1.00
17 1.00
18 1.00
19 1.00
20 1.00
21 1.00
22 1.00
23 1.00
24 1.00
25 1.00
26 1.00
27 1.00
28 1.00
29 1.00
30 1.00
31 1.00
32 1.00
33 1.00
34 1.00
35 1.00
36 1.00
37 1.00

#	Copyright 2023 drugdesign.org
#	Creation time:	2024-01-11T10:51:48Z

@<SCITEGIC>ROOT_PROPERTY
Ligand:MaximumNumberOfAtoms
SciTegic.value.IntegerValue
100

@<SCITEGIC>ROOT_PROPERTY
Ligand:HydrogenAtomsCountTowardsMaximum
SciTegic.value.BooleanValue
FALSE

@<TRIPOS>MOLECULE
staurosporine
   37    44     0 0 0
SMALL
USER_CHARGES


@<TRIPOS>ATOM
      1 H1           -0.695626    3.958011   -1.146518 H        1 SUBUNIT    0.1500
      2 N2           -0.334826    3.164111   -0.899218 N.am     1 SUBUNIT   -0.3071
      3 C3           -1.099826    2.170311   -0.385518 C.2      1 SUBUNIT    0.2442
      4 C4           -0.119026    1.112213   -0.036118 C.ar     1 SUBUNIT    0.0521
      5 C5            1.165474    1.531413   -0.413618 C.ar     1 SUBUNIT   -0.0080
      6 C6            1.122674    2.921211   -1.035418 C.3      1 SUBUNIT    0.1417
      7 O7           -2.322628    2.233311   -0.275618 O.2      1 SUBUNIT   -0.2719
      8 C8           -0.292926   -0.156187    0.577882 C.ar     1 SUBUNIT    0.0164
      9 C9            0.834374   -0.971188    0.774982 C.ar     1 SUBUNIT    0.0522
     10 C10           2.126373   -0.553687    0.387282 C.ar     1 SUBUNIT    0.0521
     11 C11           2.288972    0.706212   -0.202018 C.ar     1 SUBUNIT    0.0091
     12 C12           3.662172    0.882112   -0.467318 C.ar     1 SUBUNIT    0.0023
     13 C13           4.355773   -0.257787   -0.040818 C.ar     1 SUBUNIT    0.0325
     14 N14           3.404472   -1.253787    0.501882 N.ar     1 SUBUNIT   -0.2102
     15 C15           4.332173    1.978711   -1.043718 C.ar     1 SUBUNIT    0.0103
     16 C16           5.736873    1.917512   -1.179318 C.ar     1 SUBUNIT    0.0008
     17 C17           6.447973    0.781812   -0.742318 C.ar     1 SUBUNIT    0.0017
     18 C18           5.761273   -0.310887   -0.165418 C.ar     1 SUBUNIT    0.0211
     19 N19           0.459574   -2.216089    1.403582 N.ar     1 SUBUNIT   -0.2149
     20 C20          -0.982226   -2.115488    1.570082 C.ar     1 SUBUNIT    0.0322
     21 C21          -1.425026   -0.873588    1.084982 C.ar     1 SUBUNIT    0.0027
     22 C22          -2.793528   -0.540787    1.153382 C.ar     1 SUBUNIT    0.0103
     23 C23          -3.693328   -1.479387    1.711082 C.ar     1 SUBUNIT    0.0008
     24 C24          -3.242328   -2.726389    2.189981 C.ar     1 SUBUNIT    0.0017
     25 C25          -1.872427   -3.057589    2.123381 C.ar     1 SUBUNIT    0.0211
     26 C26           1.304674   -3.374389    1.651082 C.3      1 SUBUNIT    0.2014
     27 O27           2.463772   -3.491189    0.773482 O.3      1 SUBUNIT   -0.3381
     28 C28           3.610972   -2.622689    1.055782 C.3      1 SUBUNIT    0.1566
     29 C29           1.677974   -3.562189    3.157681 C.3      1 SUBUNIT    0.0709
     30 C30           3.212072   -3.726089    3.376781 C.3      1 SUBUNIT    0.0904
     31 C31           3.945972   -2.577089    2.607381 C.3      1 SUBUNIT    0.1821
     32 C32           4.725574   -3.403389    0.292882 C.3      1 SUBUNIT    0.0642
     33 N33           3.619772   -3.806189    4.822886 N.3      1 SUBUNIT   -0.3142
     34 H34           4.577573   -3.858389    4.872286 H        1 SUBUNIT    0.1223
     35 C35           3.056972   -4.987388    5.538986 C.3      1 SUBUNIT    0.1013
     36 O36           3.671072   -1.273687    3.201381 O.3      1 SUBUNIT   -0.3753
     37 C37           4.741973   -0.765688    4.043582 C.3      1 SUBUNIT    0.1951
@<TRIPOS>BOND
     1    1    2 1
     2    2    3 1
     3    2    6 1
     4    3    4 1
     5    3    7 2
     6    4    5 ar
     7    4    8 ar
     8    5    6 1
     9    5   11 ar
    10    8    9 ar
    11    8   21 ar
    12    9   10 ar
    13    9   19 ar
    14   10   11 ar
    15   10   14 ar
    16   11   12 ar
    17   12   13 ar
    18   12   15 ar
    19   13   14 ar
    20   13   18 ar
    21   14   28 1
    22   15   16 ar
    23   16   17 ar
    24   17   18 ar
    25   19   20 ar
    26   19   26 1
    27   20   21 ar
    28   20   25 ar
    29   21   22 ar
    30   22   23 ar
    31   23   24 ar
    32   24   25 ar
    33   26   27 1
    34   26   29 1
    35   27   28 1
    36   28   31 1
    37   28   32 1
    38   29   30 1
    39   30   31 1
    40   30   33 1
    41   31   36 1
    42   33   34 1
    43   33   35 1
    44   36   37 1
@<SCITEGIC>ATOM_PROPERTY
Formal Charge
SciTegic.value.StringValue
1 0
2 0
3 0
4 0
5 0
6 0
7 0
8 0
9 0
10 0
11 0
12 0
13 0
14 0
15 0
16 0
17 0
18 0
19 0
20 0
21 0
22 0
23 0
24 0
25 0
26 0
27 0
28 0
29 0
30 0
31 0
32 0
33 0
34 0
35 0
36 0
37 0

@<SCITEGIC>ATOM_PROPERTY
pdb_tempFactor
SciTegic.value.DoubleValue
1 0.00
2 0.00
3 0.00
4 0.00
5 0.00
6 0.00
7 0.00
8 0.00
9 0.00
10 0.00
11 0.00
12 0.00
13 0.00
14 0.00
15 0.00
16 0.00
17 0.00
18 0.00
19 0.00
20 0.00
21 0.00
22 0.00
23 0.00
24 0.00
25 0.00
26 0.00
27 0.00
28 0.00
29 0.00
30 0.00
31 0.00
32 0.00
33 0.00
34 0.00
35 0.00
36 0.00
37 0.00

@<SCITEGIC>ATOM_PROPERTY
pdb_occupancy
SciTegic.value.DoubleValue
1 1.00
2 1.00
3 1.00
4 1.00
5 1.00
6 1.00
7 1.00
8 1.00
9 1.00
10 1.00
11 1.00
12 1.00
13 1.00
14 1.00
15 1.00
16 1.00
17 1.00
18 1.00
19 1.00
20 1.00
21 1.00
22 1.00
23 1.00
24 1.00
25 1.00
26 1.00
27 1.00
28 1.00
29 1.00
30 1.00
31 1.00
32 1.00
33 1.00
34 1.00
35 1.00
36 1.00
37 1.00

#	Copyright 2023 drugdesign.org
#	Creation time:	2024-01-11T10:51:48Z

@<SCITEGIC>ROOT_PROPERTY
Ligand:MaximumNumberOfAtoms
SciTegic.value.IntegerValue
100

@<SCITEGIC>ROOT_PROPERTY
Ligand:HydrogenAtomsCountTowardsMaximum
SciTegic.value.BooleanValue
FALSE

@<TRIPOS>MOLECULE
staurosporine
   37    44     0 0 0
SMALL
USER_CHARGES


@<TRIPOS>ATOM
      1 H1           -0.695626    3.958011   -1.146518 H        1 SUBUNIT    0.1500
      2 N2           -0.334826    3.164111   -0.899218 N.am     1 SUBUNIT   -0.3071
      3 C3           -1.099826    2.170311   -0.385518 C.2      1 SUBUNIT    0.2442
      4 C4           -0.119026    1.112213   -0.036118 C.ar     1 SUBUNIT    0.0521
      5 C5            1.165474    1.531413   -0.413618 C.ar     1 SUBUNIT   -0.0080
      6 C6            1.122674    2.921211   -1.035418 C.3      1 SUBUNIT    0.1417
      7 O7           -2.322628    2.233311   -0.275618 O.2      1 SUBUNIT   -0.2719
      8 C8           -0.292926   -0.156187    0.577882 C.ar     1 SUBUNIT    0.0164
      9 C9            0.834374   -0.971188    0.774982 C.ar     1 SUBUNIT    0.0522
     10 C10           2.126373   -0.553687    0.387282 C.ar     1 SUBUNIT    0.0521
     11 C11           2.288972    0.706212   -0.202018 C.ar     1 SUBUNIT    0.0091
     12 C12           3.662172    0.882112   -0.467318 C.ar     1 SUBUNIT    0.0023
     13 C13           4.355773   -0.257787   -0.040818 C.ar     1 SUBUNIT    0.0325
     14 N14           3.404472   -1.253787    0.501882 N.ar     1 SUBUNIT   -0.2102
     15 C15           4.332173    1.978711   -1.043718 C.ar     1 SUBUNIT    0.0103
     16 C16           5.736873    1.917512   -1.179318 C.ar     1 SUBUNIT    0.0008
     17 C17           6.447973    0.781812   -0.742318 C.ar     1 SUBUNIT    0.0017
     18 C18           5.761273   -0.310887   -0.165418 C.ar     1 SUBUNIT    0.0211
     19 N19           0.459574   -2.216089    1.403582 N.ar     1 SUBUNIT   -0.2149
     20 C20          -0.982226   -2.115488    1.570082 C.ar     1 SUBUNIT    0.0322
     21 C21          -1.425026   -0.873588    1.084982 C.ar     1 SUBUNIT    0.0027
     22 C22          -2.793528   -0.540787    1.153382 C.ar     1 SUBUNIT    0.0103
     23 C23          -3.693328   -1.479387    1.711082 C.ar     1 SUBUNIT    0.0008
     24 C24          -3.242328   -2.726389    2.189981 C.ar     1 SUBUNIT    0.0017
     25 C25          -1.872427   -3.057589    2.123381 C.ar     1 SUBUNIT    0.0211
     26 C26           1.304674   -3.374389    1.651082 C.3      1 SUBUNIT    0.2014
     27 O27           2.463772   -3.491189    0.773482 O.3      1 SUBUNIT   -0.3381
     28 C28           3.610972   -2.622689    1.055782 C.3      1 SUBUNIT    0.1566
     29 C29           1.677974   -3.562189    3.157681 C.3      1 SUBUNIT    0.0709
     30 C30           3.212072   -3.726089    3.376781 C.3      1 SUBUNIT    0.0904
     31 C31           3.945972   -2.577089    2.607381 C.3      1 SUBUNIT    0.1821
     32 C32           4.725574   -3.403389    0.292882 C.3      1 SUBUNIT    0.0642
     33 N33           3.619772   -3.806189    4.822886 N.3      1 SUBUNIT   -0.3142
     34 H34           4.577573   -3.858389    4.872286 H        1 SUBUNIT    0.1223
     35 C35           3.056972   -4.987388    5.538986 C.3      1 SUBUNIT    0.1013
     36 O36           3.671072   -1.273687    3.201381 O.3      1 SUBUNIT   -0.3753
     37 C37           4.741973   -0.765688    4.043582 C.3      1 SUBUNIT    0.1951
@<TRIPOS>BOND
     1    1    2 1
     2    2    3 1
     3    2    6 1
     4    3    4 1
     5    3    7 2
     6    4    5 ar
     7    4    8 ar
     8    5    6 1
     9    5   11 ar
    10    8    9 ar
    11    8   21 ar
    12    9   10 ar
    13    9   19 ar
    14   10   11 ar
    15   10   14 ar
    16   11   12 ar
    17   12   13 ar
    18   12   15 ar
    19   13   14 ar
    20   13   18 ar
    21   14   28 1
    22   15   16 ar
    23   16   17 ar
    24   17   18 ar
    25   19   20 ar
    26   19   26 1
    27   20   21 ar
    28   20   25 ar
    29   21   22 ar
    30   22   23 ar
    31   23   24 ar
    32   24   25 ar
    33   26   27 1
    34   26   29 1
    35   27   28 1
    36   28   31 1
    37   28   32 1
    38   29   30 1
    39   30   31 1
    40   30   33 1
    41   31   36 1
    42   33   34 1
    43   33   35 1
    44   36   37 1
@<SCITEGIC>ATOM_PROPERTY
Formal Charge
SciTegic.value.StringValue
1 0
2 0
3 0
4 0
5 0
6 0
7 0
8 0
9 0
10 0
11 0
12 0
13 0
14 0
15 0
16 0
17 0
18 0
19 0
20 0
21 0
22 0
23 0
24 0
25 0
26 0
27 0
28 0
29 0
30 0
31 0
32 0
33 0
34 0
35 0
36 0
37 0

@<SCITEGIC>ATOM_PROPERTY
pdb_tempFactor
SciTegic.value.DoubleValue
1 0.00
2 0.00
3 0.00
4 0.00
5 0.00
6 0.00
7 0.00
8 0.00
9 0.00
10 0.00
11 0.00
12 0.00
13 0.00
14 0.00
15 0.00
16 0.00
17 0.00
18 0.00
19 0.00
20 0.00
21 0.00
22 0.00
23 0.00
24 0.00
25 0.00
26 0.00
27 0.00
28 0.00
29 0.00
30 0.00
31 0.00
32 0.00
33 0.00
34 0.00
35 0.00
36 0.00
37 0.00

@<SCITEGIC>ATOM_PROPERTY
pdb_occupancy
SciTegic.value.DoubleValue
1 1.00
2 1.00
3 1.00
4 1.00
5 1.00
6 1.00
7 1.00
8 1.00
9 1.00
10 1.00
11 1.00
12 1.00
13 1.00
14 1.00
15 1.00
16 1.00
17 1.00
18 1.00
19 1.00
20 1.00
21 1.00
22 1.00
23 1.00
24 1.00
25 1.00
26 1.00
27 1.00
28 1.00
29 1.00
30 1.00
31 1.00
32 1.00
33 1.00
34 1.00
35 1.00
36 1.00
37 1.00

#	Copyright 2023 drugdesign.org
#	Creation time:	2024-01-11T10:51:48Z

@<SCITEGIC>ROOT_PROPERTY
Ligand:MaximumNumberOfAtoms
SciTegic.value.IntegerValue
100

@<SCITEGIC>ROOT_PROPERTY
Ligand:HydrogenAtomsCountTowardsMaximum
SciTegic.value.BooleanValue
FALSE

@<TRIPOS>MOLECULE
staurosporine
   37    44     0 0 0
SMALL
USER_CHARGES


@<TRIPOS>ATOM
      1 H1           -0.695626    3.958011   -1.146518 H        1 SUBUNIT    0.1500
      2 N2           -0.334826    3.164111   -0.899218 N.am     1 SUBUNIT   -0.3071
      3 C3           -1.099826    2.170311   -0.385518 C.2      1 SUBUNIT    0.2442
      4 C4           -0.119026    1.112213   -0.036118 C.ar     1 SUBUNIT    0.0521
      5 C5            1.165474    1.531413   -0.413618 C.ar     1 SUBUNIT   -0.0080
      6 C6            1.122674    2.921211   -1.035418 C.3      1 SUBUNIT    0.1417
      7 O7           -2.322628    2.233311   -0.275618 O.2      1 SUBUNIT   -0.2719
      8 C8           -0.292926   -0.156187    0.577882 C.ar     1 SUBUNIT    0.0164
      9 C9            0.834374   -0.971188    0.774982 C.ar     1 SUBUNIT    0.0522
     10 C10           2.126373   -0.553687    0.387282 C.ar     1 SUBUNIT    0.0521
     11 C11           2.288972    0.706212   -0.202018 C.ar     1 SUBUNIT    0.0091
     12 C12           3.662172    0.882112   -0.467318 C.ar     1 SUBUNIT    0.0023
     13 C13           4.355773   -0.257787   -0.040818 C.ar     1 SUBUNIT    0.0325
     14 N14           3.404472   -1.253787    0.501882 N.ar     1 SUBUNIT   -0.2102
     15 C15           4.332173    1.978711   -1.043718 C.ar     1 SUBUNIT    0.0103
     16 C16           5.736873    1.917512   -1.179318 C.ar     1 SUBUNIT    0.0008
     17 C17           6.447973    0.781812   -0.742318 C.ar     1 SUBUNIT    0.0017
     18 C18           5.761273   -0.310887   -0.165418 C.ar     1 SUBUNIT    0.0211
     19 N19           0.459574   -2.216089    1.403582 N.ar     1 SUBUNIT   -0.2149
     20 C20          -0.982226   -2.115488    1.570082 C.ar     1 SUBUNIT    0.0322
     21 C21          -1.425026   -0.873588    1.084982 C.ar     1 SUBUNIT    0.0027
     22 C22          -2.793528   -0.540787    1.153382 C.ar     1 SUBUNIT    0.0103
     23 C23          -3.693328   -1.479387    1.711082 C.ar     1 SUBUNIT    0.0008
     24 C24          -3.242328   -2.726389    2.189981 C.ar     1 SUBUNIT    0.0017
     25 C25          -1.872427   -3.057589    2.123381 C.ar     1 SUBUNIT    0.0211
     26 C26           1.304674   -3.374389    1.651082 C.3      1 SUBUNIT    0.2014
     27 O27           2.463772   -3.491189    0.773482 O.3      1 SUBUNIT   -0.3381
     28 C28           3.610972   -2.622689    1.055782 C.3      1 SUBUNIT    0.1566
     29 C29           1.677974   -3.562189    3.157681 C.3      1 SUBUNIT    0.0709
     30 C30           3.212072   -3.726089    3.376781 C.3      1 SUBUNIT    0.0904
     31 C31           3.945972   -2.577089    2.607381 C.3      1 SUBUNIT    0.1821
     32 C32           4.725574   -3.403389    0.292882 C.3      1 SUBUNIT    0.0642
     33 N33           3.619772   -3.806189    4.822886 N.3      1 SUBUNIT   -0.3142
     34 H34           4.577573   -3.858389    4.872286 H        1 SUBUNIT    0.1223
     35 C35           3.056972   -4.987388    5.538986 C.3      1 SUBUNIT    0.1013
     36 O36           3.671072   -1.273687    3.201381 O.3      1 SUBUNIT   -0.3753
     37 C37           4.741973   -0.765688    4.043582 C.3      1 SUBUNIT    0.1951
@<TRIPOS>BOND
     1    1    2 1
     2    2    3 1
     3    2    6 1
     4    3    4 1
     5    3    7 2
     6    4    5 ar
     7    4    8 ar
     8    5    6 1
     9    5   11 ar
    10    8    9 ar
    11    8   21 ar
    12    9   10 ar
    13    9   19 ar
    14   10   11 ar
    15   10   14 ar
    16   11   12 ar
    17   12   13 ar
    18   12   15 ar
    19   13   14 ar
    20   13   18 ar
    21   14   28 1
    22   15   16 ar
    23   16   17 ar
    24   17   18 ar
    25   19   20 ar
    26   19   26 1
    27   20   21 ar
    28   20   25 ar
    29   21   22 ar
    30   22   23 ar
    31   23   24 ar
    32   24   25 ar
    33   26   27 1
    34   26   29 1
    35   27   28 1
    36   28   31 1
    37   28   32 1
    38   29   30 1
    39   30   31 1
    40   30   33 1
    41   31   36 1
    42   33   34 1
    43   33   35 1
    44   36   37 1
@<SCITEGIC>ATOM_PROPERTY
Formal Charge
SciTegic.value.StringValue
1 0
2 0
3 0
4 0
5 0
6 0
7 0
8 0
9 0
10 0
11 0
12 0
13 0
14 0
15 0
16 0
17 0
18 0
19 0
20 0
21 0
22 0
23 0
24 0
25 0
26 0
27 0
28 0
29 0
30 0
31 0
32 0
33 0
34 0
35 0
36 0
37 0

@<SCITEGIC>ATOM_PROPERTY
pdb_tempFactor
SciTegic.value.DoubleValue
1 0.00
2 0.00
3 0.00
4 0.00
5 0.00
6 0.00
7 0.00
8 0.00
9 0.00
10 0.00
11 0.00
12 0.00
13 0.00
14 0.00
15 0.00
16 0.00
17 0.00
18 0.00
19 0.00
20 0.00
21 0.00
22 0.00
23 0.00
24 0.00
25 0.00
26 0.00
27 0.00
28 0.00
29 0.00
30 0.00
31 0.00
32 0.00
33 0.00
34 0.00
35 0.00
36 0.00
37 0.00

@<SCITEGIC>ATOM_PROPERTY
pdb_occupancy
SciTegic.value.DoubleValue
1 1.00
2 1.00
3 1.00
4 1.00
5 1.00
6 1.00
7 1.00
8 1.00
9 1.00
10 1.00
11 1.00
12 1.00
13 1.00
14 1.00
15 1.00
16 1.00
17 1.00
18 1.00
19 1.00
20 1.00
21 1.00
22 1.00
23 1.00
24 1.00
25 1.00
26 1.00
27 1.00
28 1.00
29 1.00
30 1.00
31 1.00
32 1.00
33 1.00
34 1.00
35 1.00
36 1.00
37 1.00

#	Copyright 2023 drugdesign.org
#	Creation time:	2024-01-11T10:51:48Z

@<SCITEGIC>ROOT_PROPERTY
Ligand:MaximumNumberOfAtoms
SciTegic.value.IntegerValue
100

@<SCITEGIC>ROOT_PROPERTY
Ligand:HydrogenAtomsCountTowardsMaximum
SciTegic.value.BooleanValue
FALSE

@<TRIPOS>MOLECULE
staurosporine
   37    44     0 0 0
SMALL
USER_CHARGES


@<TRIPOS>ATOM
      1 H1           -2.891020    3.203452   -0.528104 H        1 SUBUNIT    0.1500
      2 N2           -2.530220    2.409552   -0.280804 N.am     1 SUBUNIT   -0.3071
      3 C3           -3.295220    1.415752    0.232896 C.2      1 SUBUNIT    0.2442
      4 C4           -2.314420    0.357653    0.582296 C.ar     1 SUBUNIT    0.0521
      5 C5           -1.029920    0.776853    0.204796 C.ar     1 SUBUNIT   -0.0080
      6 C6           -1.072720    2.166652   -0.417004 C.3      1 SUBUNIT    0.1417
      7 O7           -4.518022    1.478752    0.342796 O.2      1 SUBUNIT   -0.2719
      8 C8           -2.488320   -0.910747    1.196296 C.ar     1 SUBUNIT    0.0164
      9 C9           -1.361020   -1.725748    1.393396 C.ar     1 SUBUNIT    0.0522
     10 C10          -0.069021   -1.308247    1.005696 C.ar     1 SUBUNIT    0.0521
     11 C11           0.093578   -0.048348    0.416396 C.ar     1 SUBUNIT    0.0091
     12 C12           1.466778    0.127553    0.151096 C.ar     1 SUBUNIT    0.0023
     13 C13           2.160380   -1.012347    0.577596 C.ar     1 SUBUNIT    0.0325
     14 N14           1.209078   -2.008347    1.120296 N.ar     1 SUBUNIT   -0.2102
     15 C15           2.136780    1.224151   -0.425304 C.ar     1 SUBUNIT    0.0103
     16 C16           3.541480    1.162951   -0.560904 C.ar     1 SUBUNIT    0.0008
     17 C17           4.252580    0.027252   -0.123904 C.ar     1 SUBUNIT    0.0017
     18 C18           3.565880   -1.065447    0.452996 C.ar     1 SUBUNIT    0.0211
     19 N19          -1.735820   -2.970648    2.021996 N.ar     1 SUBUNIT   -0.2149
     20 C20          -3.177620   -2.870047    2.188496 C.ar     1 SUBUNIT    0.0322
     21 C21          -3.620420   -1.628148    1.703396 C.ar     1 SUBUNIT    0.0027
     22 C22          -4.988922   -1.295347    1.771796 C.ar     1 SUBUNIT    0.0103
     23 C23          -5.888723   -2.233947    2.329496 C.ar     1 SUBUNIT    0.0008
     24 C24          -5.437723   -3.480948    2.808397 C.ar     1 SUBUNIT    0.0017
     25 C25          -4.067821   -3.812148    2.741796 C.ar     1 SUBUNIT    0.0211
     26 C26          -0.890720   -4.128948    2.269496 C.3      1 SUBUNIT    0.2014
     27 O27           0.268378   -4.245748    1.391896 O.3      1 SUBUNIT   -0.3381
     28 C28           1.415578   -3.377248    1.674196 C.3      1 SUBUNIT    0.1566
     29 C29          -0.517420   -4.316748    3.776097 C.3      1 SUBUNIT    0.0709
     30 C30           1.016678   -4.480647    3.995197 C.3      1 SUBUNIT    0.0904
     31 C31           1.750578   -3.331648    3.225796 C.3      1 SUBUNIT    0.1821
     32 C32           2.530180   -4.157948    0.911296 C.3      1 SUBUNIT    0.0642
     33 N33           1.424378   -4.560747    5.441296 N.3      1 SUBUNIT   -0.3142
     34 H34           2.382180   -4.612947    5.490696 H        1 SUBUNIT    0.1223
     35 C35           0.861578   -5.741948    6.157396 C.3      1 SUBUNIT    0.1013
     36 O36           1.475678   -2.028247    3.819797 O.3      1 SUBUNIT   -0.3753
     37 C37           2.546580   -1.520248    4.661993 C.3      1 SUBUNIT    0.1951
@<TRIPOS>BOND
     1    1    2 1
     2    2    3 1
     3    2    6 1
     4    3    4 1
     5    3    7 2
     6    4    5 ar
     7    4    8 ar
     8    5    6 1
     9    5   11 ar
    10    8    9 ar
    11    8   21 ar
    12    9   10 ar
    13    9   19 ar
    14   10   11 ar
    15   10   14 ar
    16   11   12 ar
    17   12   13 ar
    18   12   15 ar
    19   13   14 ar
    20   13   18 ar
    21   14   28 1
    22   15   16 ar
    23   16   17 ar
    24   17   18 ar
    25   19   20 ar
    26   19   26 1
    27   20   21 ar
    28   20   25 ar
    29   21   22 ar
    30   22   23 ar
    31   23   24 ar
    32   24   25 ar
    33   26   27 1
    34   26   29 1
    35   27   28 1
    36   28   31 1
    37   28   32 1
    38   29   30 1
    39   30   31 1
    40   30   33 1
    41   31   36 1
    42   33   34 1
    43   33   35 1
    44   36   37 1
@<SCITEGIC>ATOM_PROPERTY
Formal Charge
SciTegic.value.StringValue
1 0
2 0
3 0
4 0
5 0
6 0
7 0
8 0
9 0
10 0
11 0
12 0
13 0
14 0
15 0
16 0
17 0
18 0
19 0
20 0
21 0
22 0
23 0
24 0
25 0
26 0
27 0
28 0
29 0
30 0
31 0
32 0
33 0
34 0
35 0
36 0
37 0

@<SCITEGIC>ATOM_PROPERTY
pdb_tempFactor
SciTegic.value.DoubleValue
1 0.00
2 0.00
3 0.00
4 0.00
5 0.00
6 0.00
7 0.00
8 0.00
9 0.00
10 0.00
11 0.00
12 0.00
13 0.00
14 0.00
15 0.00
16 0.00
17 0.00
18 0.00
19 0.00
20 0.00
21 0.00
22 0.00
23 0.00
24 0.00
25 0.00
26 0.00
27 0.00
28 0.00
29 0.00
30 0.00
31 0.00
32 0.00
33 0.00
34 0.00
35 0.00
36 0.00
37 0.00

@<SCITEGIC>ATOM_PROPERTY
pdb_occupancy
SciTegic.value.DoubleValue
1 1.00
2 1.00
3 1.00
4 1.00
5 1.00
6 1.00
7 1.00
8 1.00
9 1.00
10 1.00
11 1.00
12 1.00
13 1.00
14 1.00
15 1.00
16 1.00
17 1.00
18 1.00
19 1.00
20 1.00
21 1.00
22 1.00
23 1.00
24 1.00
25 1.00
26 1.00
27 1.00
28 1.00
29 1.00
30 1.00
31 1.00
32 1.00
33 1.00
34 1.00
35 1.00
36 1.00
37 1.00

#	Copyright 2023 drugdesign.org
#	Creation time:	2024-01-11T10:51:48Z

@<SCITEGIC>ROOT_PROPERTY
Ligand:MaximumNumberOfAtoms
SciTegic.value.IntegerValue
100

@<SCITEGIC>ROOT_PROPERTY
Ligand:HydrogenAtomsCountTowardsMaximum
SciTegic.value.BooleanValue
FALSE

@<TRIPOS>MOLECULE
staurosporine
   37    44     0 0 0
SMALL
USER_CHARGES


@<TRIPOS>ATOM
      1 H1           -0.695626    3.958011   -1.146518 H        1 SUBUNIT    0.1500
      2 N2           -0.334826    3.164111   -0.899218 N.am     1 SUBUNIT   -0.3071
      3 C3           -1.099826    2.170311   -0.385518 C.2      1 SUBUNIT    0.2442
      4 C4           -0.119026    1.112213   -0.036118 C.ar     1 SUBUNIT    0.0521
      5 C5            1.165474    1.531413   -0.413618 C.ar     1 SUBUNIT   -0.0080
      6 C6            1.122674    2.921211   -1.035418 C.3      1 SUBUNIT    0.1417
      7 O7           -2.322628    2.233311   -0.275618 O.2      1 SUBUNIT   -0.2719
      8 C8           -0.292926   -0.156187    0.577882 C.ar     1 SUBUNIT    0.0164
      9 C9            0.834374   -0.971188    0.774982 C.ar     1 SUBUNIT    0.0522
     10 C10           2.126373   -0.553687    0.387282 C.ar     1 SUBUNIT    0.0521
     11 C11           2.288972    0.706212   -0.202018 C.ar     1 SUBUNIT    0.0091
     12 C12           3.662172    0.882112   -0.467318 C.ar     1 SUBUNIT    0.0023
     13 C13           4.355773   -0.257787   -0.040818 C.ar     1 SUBUNIT    0.0325
     14 N14           3.404472   -1.253787    0.501882 N.ar     1 SUBUNIT   -0.2102
     15 C15           4.332173    1.978711   -1.043718 C.ar     1 SUBUNIT    0.0103
     16 C16           5.736873    1.917512   -1.179318 C.ar     1 SUBUNIT    0.0008
     17 C17           6.447973    0.781812   -0.742318 C.ar     1 SUBUNIT    0.0017
     18 C18           5.761273   -0.310887   -0.165418 C.ar     1 SUBUNIT    0.0211
     19 N19           0.459574   -2.216089    1.403582 N.ar     1 SUBUNIT   -0.2149
     20 C20          -0.982226   -2.115488    1.570082 C.ar     1 SUBUNIT    0.0322
     21 C21          -1.425026   -0.873588    1.084982 C.ar     1 SUBUNIT    0.0027
     22 C22          -2.793528   -0.540787    1.153382 C.ar     1 SUBUNIT    0.0103
     23 C23          -3.693328   -1.479387    1.711082 C.ar     1 SUBUNIT    0.0008
     24 C24          -3.242328   -2.726389    2.189981 C.ar     1 SUBUNIT    0.0017
     25 C25          -1.872427   -3.057589    2.123381 C.ar     1 SUBUNIT    0.0211
     26 C26           1.304674   -3.374389    1.651082 C.3      1 SUBUNIT    0.2014
     27 O27           2.463772   -3.491189    0.773482 O.3      1 SUBUNIT   -0.3381
     28 C28           3.610972   -2.622689    1.055782 C.3      1 SUBUNIT    0.1566
     29 C29           1.677974   -3.562189    3.157681 C.3      1 SUBUNIT    0.0709
     30 C30           3.212072   -3.726089    3.376781 C.3      1 SUBUNIT    0.0904
     31 C31           3.945972   -2.577089    2.607381 C.3      1 SUBUNIT    0.1821
     32 C32           4.725574   -3.403389    0.292882 C.3      1 SUBUNIT    0.0642
     33 N33           3.619772   -3.806189    4.822886 N.3      1 SUBUNIT   -0.3142
     34 H34           4.577573   -3.858389    4.872286 H        1 SUBUNIT    0.1223
     35 C35           3.056972   -4.987388    5.538986 C.3      1 SUBUNIT    0.1013
     36 O36           3.671072   -1.273687    3.201381 O.3      1 SUBUNIT   -0.3753
     37 C37           4.741973   -0.765688    4.043582 C.3      1 SUBUNIT    0.1951
@<TRIPOS>BOND
     1    1    2 1
     2    2    3 1
     3    2    6 1
     4    3    4 1
     5    3    7 2
     6    4    5 ar
     7    4    8 ar
     8    5    6 1
     9    5   11 ar
    10    8    9 ar
    11    8   21 ar
    12    9   10 ar
    13    9   19 ar
    14   10   11 ar
    15   10   14 ar
    16   11   12 ar
    17   12   13 ar
    18   12   15 ar
    19   13   14 ar
    20   13   18 ar
    21   14   28 1
    22   15   16 ar
    23   16   17 ar
    24   17   18 ar
    25   19   20 ar
    26   19   26 1
    27   20   21 ar
    28   20   25 ar
    29   21   22 ar
    30   22   23 ar
    31   23   24 ar
    32   24   25 ar
    33   26   27 1
    34   26   29 1
    35   27   28 1
    36   28   31 1
    37   28   32 1
    38   29   30 1
    39   30   31 1
    40   30   33 1
    41   31   36 1
    42   33   34 1
    43   33   35 1
    44   36   37 1
@<SCITEGIC>ATOM_PROPERTY
Formal Charge
SciTegic.value.StringValue
1 0
2 0
3 0
4 0
5 0
6 0
7 0
8 0
9 0
10 0
11 0
12 0
13 0
14 0
15 0
16 0
17 0
18 0
19 0
20 0
21 0
22 0
23 0
24 0
25 0
26 0
27 0
28 0
29 0
30 0
31 0
32 0
33 0
34 0
35 0
36 0
37 0

@<SCITEGIC>ATOM_PROPERTY
pdb_tempFactor
SciTegic.value.DoubleValue
1 0.00
2 0.00
3 0.00
4 0.00
5 0.00
6 0.00
7 0.00
8 0.00
9 0.00
10 0.00
11 0.00
12 0.00
13 0.00
14 0.00
15 0.00
16 0.00
17 0.00
18 0.00
19 0.00
20 0.00
21 0.00
22 0.00
23 0.00
24 0.00
25 0.00
26 0.00
27 0.00
28 0.00
29 0.00
30 0.00
31 0.00
32 0.00
33 0.00
34 0.00
35 0.00
36 0.00
37 0.00

@<SCITEGIC>ATOM_PROPERTY
pdb_occupancy
SciTegic.value.DoubleValue
1 1.00
2 1.00
3 1.00
4 1.00
5 1.00
6 1.00
7 1.00
8 1.00
9 1.00
10 1.00
11 1.00
12 1.00
13 1.00
14 1.00
15 1.00
16 1.00
17 1.00
18 1.00
19 1.00
20 1.00
21 1.00
22 1.00
23 1.00
24 1.00
25 1.00
26 1.00
27 1.00
28 1.00
29 1.00
30 1.00
31 1.00
32 1.00
33 1.00
34 1.00
35 1.00
36 1.00
37 1.00

#	Copyright 2023 drugdesign.org
#	Creation time:	2024-01-11T10:51:48Z

@<SCITEGIC>ROOT_PROPERTY
Ligand:MaximumNumberOfAtoms
SciTegic.value.IntegerValue
100

@<SCITEGIC>ROOT_PROPERTY
Ligand:HydrogenAtomsCountTowardsMaximum
SciTegic.value.BooleanValue
FALSE

@<TRIPOS>MOLECULE
staurosporine
   37    44     0 0 0
SMALL
USER_CHARGES


@<TRIPOS>ATOM
      1 H1           -6.669789    1.984788    0.492695 H        1 SUBUNIT    0.1500
      2 N2           -6.308989    1.190888    0.739995 N.am     1 SUBUNIT   -0.3071
      3 C3           -7.073989    0.197087    1.253695 C.2      1 SUBUNIT    0.2442
      4 C4           -6.093189   -0.861011    1.603095 C.ar     1 SUBUNIT    0.0521
      5 C5           -4.808689   -0.441811    1.225595 C.ar     1 SUBUNIT   -0.0080
      6 C6           -4.851490    0.947987    0.603795 C.3      1 SUBUNIT    0.1417
      7 O7           -8.296792    0.260088    1.363595 O.2      1 SUBUNIT   -0.2719
      8 C8           -6.267089   -2.129411    2.217096 C.ar     1 SUBUNIT    0.0164
      9 C9           -5.139790   -2.944412    2.414196 C.ar     1 SUBUNIT    0.0522
     10 C10          -3.847791   -2.526912    2.026495 C.ar     1 SUBUNIT    0.0521
     11 C11          -3.685192   -1.267012    1.437195 C.ar     1 SUBUNIT    0.0091
     12 C12          -2.311993   -1.091112    1.171895 C.ar     1 SUBUNIT    0.0023
     13 C13          -1.618390   -2.231012    1.598395 C.ar     1 SUBUNIT    0.0325
     14 N14          -2.569693   -3.227011    2.141095 N.ar     1 SUBUNIT   -0.2102
     15 C15          -1.641990    0.005487    0.595495 C.ar     1 SUBUNIT    0.0103
     16 C16          -0.237291   -0.055713    0.459895 C.ar     1 SUBUNIT    0.0008
     17 C17           0.473809   -1.191412    0.896895 C.ar     1 SUBUNIT    0.0017
     18 C18          -0.212890   -2.284111    1.473795 C.ar     1 SUBUNIT    0.0211
     19 N19          -5.514590   -4.189312    3.042796 N.ar     1 SUBUNIT   -0.2149
     20 C20          -6.956389   -4.088711    3.209296 C.ar     1 SUBUNIT    0.0322
     21 C21          -7.399189   -2.846812    2.724195 C.ar     1 SUBUNIT    0.0027
     22 C22          -8.767693   -2.514012    2.792595 C.ar     1 SUBUNIT    0.0103
     23 C23          -9.667493   -3.452611    3.350296 C.ar     1 SUBUNIT    0.0008
     24 C24          -9.216493   -4.699612    3.829196 C.ar     1 SUBUNIT    0.0017
     25 C25          -7.846590   -5.030812    3.762596 C.ar     1 SUBUNIT    0.0211
     26 C26          -4.669489   -5.347611    3.290296 C.3      1 SUBUNIT    0.2014
     27 O27          -3.510392   -5.464412    2.412696 O.3      1 SUBUNIT   -0.3381
     28 C28          -2.363193   -4.595912    2.694996 C.3      1 SUBUNIT    0.1566
     29 C29          -4.296189   -5.535412    4.796896 C.3      1 SUBUNIT    0.0709
     30 C30          -2.762093   -5.699311    5.015996 C.3      1 SUBUNIT    0.0904
     31 C31          -2.028193   -4.550312    4.246596 C.3      1 SUBUNIT    0.1821
     32 C32          -1.248590   -5.376612    1.932095 C.3      1 SUBUNIT    0.0642
     33 N33          -2.354393   -5.779411    6.462095 N.3      1 SUBUNIT   -0.3142
     34 H34          -1.396590   -5.831612    6.511495 H        1 SUBUNIT    0.1223
     35 C35          -2.917193   -6.960611    7.178195 C.3      1 SUBUNIT    0.1013
     36 O36          -2.303092   -3.246911    4.840596 O.3      1 SUBUNIT   -0.3753
     37 C37          -1.232190   -2.738912    5.682792 C.3      1 SUBUNIT    0.1951
@<TRIPOS>BOND
     1    1    2 1
     2    2    3 1
     3    2    6 1
     4    3    4 1
     5    3    7 2
     6    4    5 ar
     7    4    8 ar
     8    5    6 1
     9    5   11 ar
    10    8    9 ar
    11    8   21 ar
    12    9   10 ar
    13    9   19 ar
    14   10   11 ar
    15   10   14 ar
    16   11   12 ar
    17   12   13 ar
    18   12   15 ar
    19   13   14 ar
    20   13   18 ar
    21   14   28 1
    22   15   16 ar
    23   16   17 ar
    24   17   18 ar
    25   19   20 ar
    26   19   26 1
    27   20   21 ar
    28   20   25 ar
    29   21   22 ar
    30   22   23 ar
    31   23   24 ar
    32   24   25 ar
    33   26   27 1
    34   26   29 1
    35   27   28 1
    36   28   31 1
    37   28   32 1
    38   29   30 1
    39   30   31 1
    40   30   33 1
    41   31   36 1
    42   33   34 1
    43   33   35 1
    44   36   37 1
@<SCITEGIC>ATOM_PROPERTY
Formal Charge
SciTegic.value.StringValue
1 0
2 0
3 0
4 0
5 0
6 0
7 0
8 0
9 0
10 0
11 0
12 0
13 0
14 0
15 0
16 0
17 0
18 0
19 0
20 0
21 0
22 0
23 0
24 0
25 0
26 0
27 0
28 0
29 0
30 0
31 0
32 0
33 0
34 0
35 0
36 0
37 0

@<SCITEGIC>ATOM_PROPERTY
pdb_tempFactor
SciTegic.value.DoubleValue
1 0.00
2 0.00
3 0.00
4 0.00
5 0.00
6 0.00
7 0.00
8 0.00
9 0.00
10 0.00
11 0.00
12 0.00
13 0.00
14 0.00
15 0.00
16 0.00
17 0.00
18 0.00
19 0.00
20 0.00
21 0.00
22 0.00
23 0.00
24 0.00
25 0.00
26 0.00
27 0.00
28 0.00
29 0.00
30 0.00
31 0.00
32 0.00
33 0.00
34 0.00
35 0.00
36 0.00
37 0.00

@<SCITEGIC>ATOM_PROPERTY
pdb_occupancy
SciTegic.value.DoubleValue
1 1.00
2 1.00
3 1.00
4 1.00
5 1.00
6 1.00
7 1.00
8 1.00
9 1.00
10 1.00
11 1.00
12 1.00
13 1.00
14 1.00
15 1.00
16 1.00
17 1.00
18 1.00
19 1.00
20 1.00
21 1.00
22 1.00
23 1.00
24 1.00
25 1.00
26 1.00
27 1.00
28 1.00
29 1.00
30 1.00
31 1.00
32 1.00
33 1.00
34 1.00
35 1.00
36 1.00
37 1.00

#	Copyright 2023 drugdesign.org
#	Creation time:	2024-01-11T10:51:49Z

@<SCITEGIC>ROOT_PROPERTY
Ligand:MaximumNumberOfAtoms
SciTegic.value.IntegerValue
100

@<SCITEGIC>ROOT_PROPERTY
Ligand:HydrogenAtomsCountTowardsMaximum
SciTegic.value.BooleanValue
FALSE

@<TRIPOS>MOLECULE
staurosporine
   37    44     0 0 0
SMALL
USER_CHARGES


@<TRIPOS>ATOM
      1 H1           -0.695626    3.958011   -1.146518 H        1 SUBUNIT    0.1500
      2 N2           -0.334826    3.164111   -0.899218 N.am     1 SUBUNIT   -0.3071
      3 C3           -1.099826    2.170311   -0.385518 C.2      1 SUBUNIT    0.2442
      4 C4           -0.119026    1.112213   -0.036118 C.ar     1 SUBUNIT    0.0521
      5 C5            1.165474    1.531413   -0.413618 C.ar     1 SUBUNIT   -0.0080
      6 C6            1.122674    2.921211   -1.035418 C.3      1 SUBUNIT    0.1417
      7 O7           -2.322628    2.233311   -0.275618 O.2      1 SUBUNIT   -0.2719
      8 C8           -0.292926   -0.156187    0.577882 C.ar     1 SUBUNIT    0.0164
      9 C9            0.834374   -0.971188    0.774982 C.ar     1 SUBUNIT    0.0522
     10 C10           2.126373   -0.553687    0.387282 C.ar     1 SUBUNIT    0.0521
     11 C11           2.288972    0.706212   -0.202018 C.ar     1 SUBUNIT    0.0091
     12 C12           3.662172    0.882112   -0.467318 C.ar     1 SUBUNIT    0.0023
     13 C13           4.355773   -0.257787   -0.040818 C.ar     1 SUBUNIT    0.0325
     14 N14           3.404472   -1.253787    0.501882 N.ar     1 SUBUNIT   -0.2102
     15 C15           4.332173    1.978711   -1.043718 C.ar     1 SUBUNIT    0.0103
     16 C16           5.736873    1.917512   -1.179318 C.ar     1 SUBUNIT    0.0008
     17 C17           6.447973    0.781812   -0.742318 C.ar     1 SUBUNIT    0.0017
     18 C18           5.761273   -0.310887   -0.165418 C.ar     1 SUBUNIT    0.0211
     19 N19           0.459574   -2.216089    1.403582 N.ar     1 SUBUNIT   -0.2149
     20 C20          -0.982226   -2.115488    1.570082 C.ar     1 SUBUNIT    0.0322
     21 C21          -1.425026   -0.873588    1.084982 C.ar     1 SUBUNIT    0.0027
     22 C22          -2.793528   -0.540787    1.153382 C.ar     1 SUBUNIT    0.0103
     23 C23          -3.693328   -1.479387    1.711082 C.ar     1 SUBUNIT    0.0008
     24 C24          -3.242328   -2.726389    2.189981 C.ar     1 SUBUNIT    0.0017
     25 C25          -1.872427   -3.057589    2.123381 C.ar     1 SUBUNIT    0.0211
     26 C26           1.304674   -3.374389    1.651082 C.3      1 SUBUNIT    0.2014
     27 O27           2.463772   -3.491189    0.773482 O.3      1 SUBUNIT   -0.3381
     28 C28           3.610972   -2.622689    1.055782 C.3      1 SUBUNIT    0.1566
     29 C29           1.677974   -3.562189    3.157681 C.3      1 SUBUNIT    0.0709
     30 C30           3.212072   -3.726089    3.376781 C.3      1 SUBUNIT    0.0904
     31 C31           3.945972   -2.577089    2.607381 C.3      1 SUBUNIT    0.1821
     32 C32           4.725574   -3.403389    0.292882 C.3      1 SUBUNIT    0.0642
     33 N33           3.619772   -3.806189    4.822886 N.3      1 SUBUNIT   -0.3142
     34 H34           4.577573   -3.858389    4.872286 H        1 SUBUNIT    0.1223
     35 C35           3.056972   -4.987388    5.538986 C.3      1 SUBUNIT    0.1013
     36 O36           3.671072   -1.273687    3.201381 O.3      1 SUBUNIT   -0.3753
     37 C37           4.741973   -0.765688    4.043582 C.3      1 SUBUNIT    0.1951
@<TRIPOS>BOND
     1    1    2 1
     2    2    3 1
     3    2    6 1
     4    3    4 1
     5    3    7 2
     6    4    5 ar
     7    4    8 ar
     8    5    6 1
     9    5   11 ar
    10    8    9 ar
    11    8   21 ar
    12    9   10 ar
    13    9   19 ar
    14   10   11 ar
    15   10   14 ar
    16   11   12 ar
    17   12   13 ar
    18   12   15 ar
    19   13   14 ar
    20   13   18 ar
    21   14   28 1
    22   15   16 ar
    23   16   17 ar
    24   17   18 ar
    25   19   20 ar
    26   19   26 1
    27   20   21 ar
    28   20   25 ar
    29   21   22 ar
    30   22   23 ar
    31   23   24 ar
    32   24   25 ar
    33   26   27 1
    34   26   29 1
    35   27   28 1
    36   28   31 1
    37   28   32 1
    38   29   30 1
    39   30   31 1
    40   30   33 1
    41   31   36 1
    42   33   34 1
    43   33   35 1
    44   36   37 1
@<SCITEGIC>ATOM_PROPERTY
Formal Charge
SciTegic.value.StringValue
1 0
2 0
3 0
4 0
5 0
6 0
7 0
8 0
9 0
10 0
11 0
12 0
13 0
14 0
15 0
16 0
17 0
18 0
19 0
20 0
21 0
22 0
23 0
24 0
25 0
26 0
27 0
28 0
29 0
30 0
31 0
32 0
33 0
34 0
35 0
36 0
37 0

@<SCITEGIC>ATOM_PROPERTY
pdb_tempFactor
SciTegic.value.DoubleValue
1 0.00
2 0.00
3 0.00
4 0.00
5 0.00
6 0.00
7 0.00
8 0.00
9 0.00
10 0.00
11 0.00
12 0.00
13 0.00
14 0.00
15 0.00
16 0.00
17 0.00
18 0.00
19 0.00
20 0.00
21 0.00
22 0.00
23 0.00
24 0.00
25 0.00
26 0.00
27 0.00
28 0.00
29 0.00
30 0.00
31 0.00
32 0.00
33 0.00
34 0.00
35 0.00
36 0.00
37 0.00

@<SCITEGIC>ATOM_PROPERTY
pdb_occupancy
SciTegic.value.DoubleValue
1 1.00
2 1.00
3 1.00
4 1.00
5 1.00
6 1.00
7 1.00
8 1.00
9 1.00
10 1.00
11 1.00
12 1.00
13 1.00
14 1.00
15 1.00
16 1.00
17 1.00
18 1.00
19 1.00
20 1.00
21 1.00
22 1.00
23 1.00
24 1.00
25 1.00
26 1.00
27 1.00
28 1.00
29 1.00
30 1.00
31 1.00
32 1.00
33 1.00
34 1.00
35 1.00
36 1.00
37 1.00

#	Copyright 2023 drugdesign.org
#	Creation time:	2024-01-11T10:51:49Z

@<SCITEGIC>ROOT_PROPERTY
Ligand:MaximumNumberOfAtoms
SciTegic.value.IntegerValue
100

@<SCITEGIC>ROOT_PROPERTY
Ligand:HydrogenAtomsCountTowardsMaximum
SciTegic.value.BooleanValue
FALSE

@<TRIPOS>MOLECULE
staurosporine
   37    44     0 0 0
SMALL
USER_CHARGES


@<TRIPOS>ATOM
      1 H1           -8.892354    1.280967    1.086038 H        1 SUBUNIT    0.1500
      2 N2           -8.531553    0.487067    1.333339 N.am     1 SUBUNIT   -0.3071
      3 C3           -9.296554   -0.506733    1.847039 C.2      1 SUBUNIT    0.2442
      4 C4           -8.315753   -1.564831    2.196439 C.ar     1 SUBUNIT    0.0521
      5 C5           -7.031253   -1.145632    1.818939 C.ar     1 SUBUNIT   -0.0080
      6 C6           -7.074053    0.244167    1.197138 C.3      1 SUBUNIT    0.1417
      7 O7          -10.519357   -0.443733    1.956939 O.2      1 SUBUNIT   -0.2719
      8 C8           -8.489654   -2.833232    2.810439 C.ar     1 SUBUNIT    0.0164
      9 C9           -7.362353   -3.648233    3.007539 C.ar     1 SUBUNIT    0.0522
     10 C10          -6.070355   -3.230732    2.619839 C.ar     1 SUBUNIT    0.0521
     11 C11          -5.907756   -1.970833    2.030539 C.ar     1 SUBUNIT    0.0091
     12 C12          -4.534556   -1.794932    1.765239 C.ar     1 SUBUNIT    0.0023
     13 C13          -3.840954   -2.934832    2.191739 C.ar     1 SUBUNIT    0.0325
     14 N14          -4.792256   -3.930832    2.734439 N.ar     1 SUBUNIT   -0.2102
     15 C15          -3.864554   -0.698334    1.188838 C.ar     1 SUBUNIT    0.0103
     16 C16          -2.459855   -0.759534    1.053239 C.ar     1 SUBUNIT    0.0008
     17 C17          -1.748755   -1.895233    1.490239 C.ar     1 SUBUNIT    0.0017
     18 C18          -2.435454   -2.987932    2.067139 C.ar     1 SUBUNIT    0.0211
     19 N19          -7.737154   -4.893132    3.636139 N.ar     1 SUBUNIT   -0.2149
     20 C20          -9.178954   -4.792531    3.802639 C.ar     1 SUBUNIT    0.0322
     21 C21          -9.621753   -3.550633    3.317539 C.ar     1 SUBUNIT    0.0027
     22 C22         -10.990257   -3.217832    3.385939 C.ar     1 SUBUNIT    0.0103
     23 C23         -11.890058   -4.156431    3.943639 C.ar     1 SUBUNIT    0.0008
     24 C24         -11.439057   -5.403432    4.422541 C.ar     1 SUBUNIT    0.0017
     25 C25         -10.069155   -5.734632    4.355940 C.ar     1 SUBUNIT    0.0211
     26 C26          -6.892053   -6.051432    3.883639 C.3      1 SUBUNIT    0.2014
     27 O27          -5.732955   -6.168232    3.006039 O.3      1 SUBUNIT   -0.3381
     28 C28          -4.585756   -5.299732    3.288339 C.3      1 SUBUNIT    0.1566
     29 C29          -6.518753   -6.239232    5.390241 C.3      1 SUBUNIT    0.0709
     30 C30          -4.984656   -6.403131    5.609341 C.3      1 SUBUNIT    0.0904
     31 C31          -4.250757   -5.254132    4.839941 C.3      1 SUBUNIT    0.1821
     32 C32          -3.471154   -6.080432    2.525439 C.3      1 SUBUNIT    0.0642
     33 N33          -4.576956   -6.483232    7.055439 N.3      1 SUBUNIT   -0.3142
     34 H34          -3.619154   -6.535432    7.104840 H        1 SUBUNIT    0.1223
     35 C35          -5.139756   -7.664432    7.771540 C.3      1 SUBUNIT    0.1013
     36 O36          -4.525656   -3.950732    5.433941 O.3      1 SUBUNIT   -0.3753
     37 C37          -3.454754   -3.442733    6.276136 C.3      1 SUBUNIT    0.1951
@<TRIPOS>BOND
     1    1    2 1
     2    2    3 1
     3    2    6 1
     4    3    4 1
     5    3    7 2
     6    4    5 ar
     7    4    8 ar
     8    5    6 1
     9    5   11 ar
    10    8    9 ar
    11    8   21 ar
    12    9   10 ar
    13    9   19 ar
    14   10   11 ar
    15   10   14 ar
    16   11   12 ar
    17   12   13 ar
    18   12   15 ar
    19   13   14 ar
    20   13   18 ar
    21   14   28 1
    22   15   16 ar
    23   16   17 ar
    24   17   18 ar
    25   19   20 ar
    26   19   26 1
    27   20   21 ar
    28   20   25 ar
    29   21   22 ar
    30   22   23 ar
    31   23   24 ar
    32   24   25 ar
    33   26   27 1
    34   26   29 1
    35   27   28 1
    36   28   31 1
    37   28   32 1
    38   29   30 1
    39   30   31 1
    40   30   33 1
    41   31   36 1
    42   33   34 1
    43   33   35 1
    44   36   37 1
@<SCITEGIC>ATOM_PROPERTY
Formal Charge
SciTegic.value.StringValue
1 0
2 0
3 0
4 0
5 0
6 0
7 0
8 0
9 0
10 0
11 0
12 0
13 0
14 0
15 0
16 0
17 0
18 0
19 0
20 0
21 0
22 0
23 0
24 0
25 0
26 0
27 0
28 0
29 0
30 0
31 0
32 0
33 0
34 0
35 0
36 0
37 0

@<SCITEGIC>ATOM_PROPERTY
pdb_tempFactor
SciTegic.value.DoubleValue
1 0.00
2 0.00
3 0.00
4 0.00
5 0.00
6 0.00
7 0.00
8 0.00
9 0.00
10 0.00
11 0.00
12 0.00
13 0.00
14 0.00
15 0.00
16 0.00
17 0.00
18 0.00
19 0.00
20 0.00
21 0.00
22 0.00
23 0.00
24 0.00
25 0.00
26 0.00
27 0.00
28 0.00
29 0.00
30 0.00
31 0.00
32 0.00
33 0.00
34 0.00
35 0.00
36 0.00
37 0.00

@<SCITEGIC>ATOM_PROPERTY
pdb_occupancy
SciTegic.value.DoubleValue
1 1.00
2 1.00
3 1.00
4 1.00
5 1.00
6 1.00
7 1.00
8 1.00
9 1.00
10 1.00
11 1.00
12 1.00
13 1.00
14 1.00
15 1.00
16 1.00
17 1.00
18 1.00
19 1.00
20 1.00
21 1.00
22 1.00
23 1.00
24 1.00
25 1.00
26 1.00
27 1.00
28 1.00
29 1.00
30 1.00
31 1.00
32 1.00
33 1.00
34 1.00
35 1.00
36 1.00
37 1.00

#	Copyright 2023 drugdesign.org
#	Creation time:	2024-01-11T10:51:49Z

@<SCITEGIC>ROOT_PROPERTY
Ligand:MaximumNumberOfAtoms
SciTegic.value.IntegerValue
100

@<SCITEGIC>ROOT_PROPERTY
Ligand:HydrogenAtomsCountTowardsMaximum
SciTegic.value.BooleanValue
FALSE

@<TRIPOS>MOLECULE
staurosporine
   37    44     0 0 0
SMALL
USER_CHARGES


@<TRIPOS>ATOM
      1 H1           -0.695626    3.958011   -1.146518 H        1 SUBUNIT    0.1500
      2 N2           -0.334826    3.164111   -0.899218 N.am     1 SUBUNIT   -0.3071
      3 C3           -1.099826    2.170311   -0.385518 C.2      1 SUBUNIT    0.2442
      4 C4           -0.119026    1.112213   -0.036118 C.ar     1 SUBUNIT    0.0521
      5 C5            1.165474    1.531413   -0.413618 C.ar     1 SUBUNIT   -0.0080
      6 C6            1.122674    2.921211   -1.035418 C.3      1 SUBUNIT    0.1417
      7 O7           -2.322628    2.233311   -0.275618 O.2      1 SUBUNIT   -0.2719
      8 C8           -0.292926   -0.156187    0.577882 C.ar     1 SUBUNIT    0.0164
      9 C9            0.834374   -0.971188    0.774982 C.ar     1 SUBUNIT    0.0522
     10 C10           2.126373   -0.553687    0.387282 C.ar     1 SUBUNIT    0.0521
     11 C11           2.288972    0.706212   -0.202018 C.ar     1 SUBUNIT    0.0091
     12 C12           3.662172    0.882112   -0.467318 C.ar     1 SUBUNIT    0.0023
     13 C13           4.355773   -0.257787   -0.040818 C.ar     1 SUBUNIT    0.0325
     14 N14           3.404472   -1.253787    0.501882 N.ar     1 SUBUNIT   -0.2102
     15 C15           4.332173    1.978711   -1.043718 C.ar     1 SUBUNIT    0.0103
     16 C16           5.736873    1.917512   -1.179318 C.ar     1 SUBUNIT    0.0008
     17 C17           6.447973    0.781812   -0.742318 C.ar     1 SUBUNIT    0.0017
     18 C18           5.761273   -0.310887   -0.165418 C.ar     1 SUBUNIT    0.0211
     19 N19           0.459574   -2.216089    1.403582 N.ar     1 SUBUNIT   -0.2149
     20 C20          -0.982226   -2.115488    1.570082 C.ar     1 SUBUNIT    0.0322
     21 C21          -1.425026   -0.873588    1.084982 C.ar     1 SUBUNIT    0.0027
     22 C22          -2.793528   -0.540787    1.153382 C.ar     1 SUBUNIT    0.0103
     23 C23          -3.693328   -1.479387    1.711082 C.ar     1 SUBUNIT    0.0008
     24 C24          -3.242328   -2.726389    2.189981 C.ar     1 SUBUNIT    0.0017
     25 C25          -1.872427   -3.057589    2.123381 C.ar     1 SUBUNIT    0.0211
     26 C26           1.304674   -3.374389    1.651082 C.3      1 SUBUNIT    0.2014
     27 O27           2.463772   -3.491189    0.773482 O.3      1 SUBUNIT   -0.3381
     28 C28           3.610972   -2.622689    1.055782 C.3      1 SUBUNIT    0.1566
     29 C29           1.677974   -3.562189    3.157681 C.3      1 SUBUNIT    0.0709
     30 C30           3.212072   -3.726089    3.376781 C.3      1 SUBUNIT    0.0904
     31 C31           3.945972   -2.577089    2.607381 C.3      1 SUBUNIT    0.1821
     32 C32           4.725574   -3.403389    0.292882 C.3      1 SUBUNIT    0.0642
     33 N33           3.619772   -3.806189    4.822886 N.3      1 SUBUNIT   -0.3142
     34 H34           4.577573   -3.858389    4.872286 H        1 SUBUNIT    0.1223
     35 C35           3.056972   -4.987388    5.538986 C.3      1 SUBUNIT    0.1013
     36 O36           3.671072   -1.273687    3.201381 O.3      1 SUBUNIT   -0.3753
     37 C37           4.741973   -0.765688    4.043582 C.3      1 SUBUNIT    0.1951
@<TRIPOS>BOND
     1    1    2 1
     2    2    3 1
     3    2    6 1
     4    3    4 1
     5    3    7 2
     6    4    5 ar
     7    4    8 ar
     8    5    6 1
     9    5   11 ar
    10    8    9 ar
    11    8   21 ar
    12    9   10 ar
    13    9   19 ar
    14   10   11 ar
    15   10   14 ar
    16   11   12 ar
    17   12   13 ar
    18   12   15 ar
    19   13   14 ar
    20   13   18 ar
    21   14   28 1
    22   15   16 ar
    23   16   17 ar
    24   17   18 ar
    25   19   20 ar
    26   19   26 1
    27   20   21 ar
    28   20   25 ar
    29   21   22 ar
    30   22   23 ar
    31   23   24 ar
    32   24   25 ar
    33   26   27 1
    34   26   29 1
    35   27   28 1
    36   28   31 1
    37   28   32 1
    38   29   30 1
    39   30   31 1
    40   30   33 1
    41   31   36 1
    42   33   34 1
    43   33   35 1
    44   36   37 1
@<SCITEGIC>ATOM_PROPERTY
Formal Charge
SciTegic.value.StringValue
1 0
2 0
3 0
4 0
5 0
6 0
7 0
8 0
9 0
10 0
11 0
12 0
13 0
14 0
15 0
16 0
17 0
18 0
19 0
20 0
21 0
22 0
23 0
24 0
25 0
26 0
27 0
28 0
29 0
30 0
31 0
32 0
33 0
34 0
35 0
36 0
37 0

@<SCITEGIC>ATOM_PROPERTY
pdb_tempFactor
SciTegic.value.DoubleValue
1 0.00
2 0.00
3 0.00
4 0.00
5 0.00
6 0.00
7 0.00
8 0.00
9 0.00
10 0.00
11 0.00
12 0.00
13 0.00
14 0.00
15 0.00
16 0.00
17 0.00
18 0.00
19 0.00
20 0.00
21 0.00
22 0.00
23 0.00
24 0.00
25 0.00
26 0.00
27 0.00
28 0.00
29 0.00
30 0.00
31 0.00
32 0.00
33 0.00
34 0.00
35 0.00
36 0.00
37 0.00

@<SCITEGIC>ATOM_PROPERTY
pdb_occupancy
SciTegic.value.DoubleValue
1 1.00
2 1.00
3 1.00
4 1.00
5 1.00
6 1.00
7 1.00
8 1.00
9 1.00
10 1.00
11 1.00
12 1.00
13 1.00
14 1.00
15 1.00
16 1.00
17 1.00
18 1.00
19 1.00
20 1.00
21 1.00
22 1.00
23 1.00
24 1.00
25 1.00
26 1.00
27 1.00
28 1.00
29 1.00
30 1.00
31 1.00
32 1.00
33 1.00
34 1.00
35 1.00
36 1.00
37 1.00

#	Copyright 2023 drugdesign.org
#	Creation time:	2024-01-11T10:51:49Z

@<SCITEGIC>ROOT_PROPERTY
Ligand:MaximumNumberOfAtoms
SciTegic.value.IntegerValue
100

@<SCITEGIC>ROOT_PROPERTY
Ligand:HydrogenAtomsCountTowardsMaximum
SciTegic.value.BooleanValue
FALSE

@<TRIPOS>MOLECULE
staurosporine
   37    44     0 0 0
SMALL
USER_CHARGES


@<TRIPOS>ATOM
      1 H1          -11.663267    0.328592    1.866572 H        1 SUBUNIT    0.1500
      2 N2          -11.302466   -0.465308    2.113873 N.am     1 SUBUNIT   -0.3071
      3 C3          -12.067467   -1.459109    2.627573 C.2      1 SUBUNIT    0.2442
      4 C4          -11.086666   -2.517207    2.976972 C.ar     1 SUBUNIT    0.0521
      5 C5           -9.802163   -2.098007    2.599473 C.ar     1 SUBUNIT   -0.0080
      6 C6           -9.844964   -0.708208    1.977672 C.3      1 SUBUNIT    0.1417
      7 O7          -13.290270   -1.396108    2.737473 O.2      1 SUBUNIT   -0.2719
      8 C8          -11.260567   -3.785607    3.590973 C.ar     1 SUBUNIT    0.0164
      9 C9          -10.133265   -4.600606    3.788073 C.ar     1 SUBUNIT    0.0522
     10 C10          -8.841265   -4.183105    3.400372 C.ar     1 SUBUNIT    0.0521
     11 C11          -8.678665   -2.923208    2.811073 C.ar     1 SUBUNIT    0.0091
     12 C12          -7.305453   -2.747308    2.545773 C.ar     1 SUBUNIT    0.0023
     13 C13          -6.611851   -3.887207    2.972273 C.ar     1 SUBUNIT    0.0325
     14 N14          -7.563152   -4.883204    3.514972 N.ar     1 SUBUNIT   -0.2102
     15 C15          -6.635451   -1.650709    1.969372 C.ar     1 SUBUNIT    0.0103
     16 C16          -5.230752   -1.711909    1.833772 C.ar     1 SUBUNIT    0.0008
     17 C17          -4.519653   -2.847608    2.270773 C.ar     1 SUBUNIT    0.0017
     18 C18          -5.206352   -3.940306    2.847673 C.ar     1 SUBUNIT    0.0211
     19 N19         -10.508066   -5.845505    4.416674 N.ar     1 SUBUNIT   -0.2149
     20 C20         -11.949867   -5.744904    4.583174 C.ar     1 SUBUNIT    0.0322
     21 C21         -12.392666   -4.503006    4.098073 C.ar     1 SUBUNIT    0.0027
     22 C22         -13.761170   -4.170206    4.166473 C.ar     1 SUBUNIT    0.0103
     23 C23         -14.660971   -5.108803    4.724174 C.ar     1 SUBUNIT    0.0008
     24 C24         -14.209970   -6.355804    5.203075 C.ar     1 SUBUNIT    0.0017
     25 C25         -12.840068   -6.687005    5.136475 C.ar     1 SUBUNIT    0.0211
     26 C26          -9.662964   -7.003804    4.664174 C.3      1 SUBUNIT    0.2014
     27 O27          -8.503864   -7.120605    3.786573 O.3      1 SUBUNIT   -0.3381
     28 C28          -7.356653   -6.252105    4.068873 C.3      1 SUBUNIT    0.1566
     29 C29          -9.289663   -7.191605    6.170775 C.3      1 SUBUNIT    0.0709
     30 C30          -7.755557   -7.355504    6.389875 C.3      1 SUBUNIT    0.0904
     31 C31          -7.021653   -6.206505    5.620475 C.3      1 SUBUNIT    0.1821
     32 C32          -6.242051   -7.032804    3.305972 C.3      1 SUBUNIT    0.0642
     33 N33          -7.347853   -7.435604    7.835974 N.3      1 SUBUNIT   -0.3142
     34 H34          -6.390050   -7.487804    7.885374 H        1 SUBUNIT    0.1223
     35 C35          -7.910661   -8.616801    8.552072 C.3      1 SUBUNIT    0.1013
     36 O36          -7.296553   -4.903104    6.214476 O.3      1 SUBUNIT   -0.3753
     37 C37          -6.225651   -4.395106    7.056671 C.3      1 SUBUNIT    0.1951
@<TRIPOS>BOND
     1    1    2 1
     2    2    3 1
     3    2    6 1
     4    3    4 1
     5    3    7 2
     6    4    5 ar
     7    4    8 ar
     8    5    6 1
     9    5   11 ar
    10    8    9 ar
    11    8   21 ar
    12    9   10 ar
    13    9   19 ar
    14   10   11 ar
    15   10   14 ar
    16   11   12 ar
    17   12   13 ar
    18   12   15 ar
    19   13   14 ar
    20   13   18 ar
    21   14   28 1
    22   15   16 ar
    23   16   17 ar
    24   17   18 ar
    25   19   20 ar
    26   19   26 1
    27   20   21 ar
    28   20   25 ar
    29   21   22 ar
    30   22   23 ar
    31   23   24 ar
    32   24   25 ar
    33   26   27 1
    34   26   29 1
    35   27   28 1
    36   28   31 1
    37   28   32 1
    38   29   30 1
    39   30   31 1
    40   30   33 1
    41   31   36 1
    42   33   34 1
    43   33   35 1
    44   36   37 1
@<SCITEGIC>ATOM_PROPERTY
Formal Charge
SciTegic.value.StringValue
1 0
2 0
3 0
4 0
5 0
6 0
7 0
8 0
9 0
10 0
11 0
12 0
13 0
14 0
15 0
16 0
17 0
18 0
19 0
20 0
21 0
22 0
23 0
24 0
25 0
26 0
27 0
28 0
29 0
30 0
31 0
32 0
33 0
34 0
35 0
36 0
37 0

@<SCITEGIC>ATOM_PROPERTY
pdb_tempFactor
SciTegic.value.DoubleValue
1 0.00
2 0.00
3 0.00
4 0.00
5 0.00
6 0.00
7 0.00
8 0.00
9 0.00
10 0.00
11 0.00
12 0.00
13 0.00
14 0.00
15 0.00
16 0.00
17 0.00
18 0.00
19 0.00
20 0.00
21 0.00
22 0.00
23 0.00
24 0.00
25 0.00
26 0.00
27 0.00
28 0.00
29 0.00
30 0.00
31 0.00
32 0.00
33 0.00
34 0.00
35 0.00
36 0.00
37 0.00

@<SCITEGIC>ATOM_PROPERTY
pdb_occupancy
SciTegic.value.DoubleValue
1 1.00
2 1.00
3 1.00
4 1.00
5 1.00
6 1.00
7 1.00
8 1.00
9 1.00
10 1.00
11 1.00
12 1.00
13 1.00
14 1.00
15 1.00
16 1.00
17 1.00
18 1.00
19 1.00
20 1.00
21 1.00
22 1.00
23 1.00
24 1.00
25 1.00
26 1.00
27 1.00
28 1.00
29 1.00
30 1.00
31 1.00
32 1.00
33 1.00
34 1.00
35 1.00
36 1.00
37 1.00

#	Copyright 2023 drugdesign.org
#	Creation time:	2024-01-11T10:51:50Z

@<SCITEGIC>ROOT_PROPERTY
Ligand:MaximumNumberOfAtoms
SciTegic.value.IntegerValue
100

@<SCITEGIC>ROOT_PROPERTY
Ligand:HydrogenAtomsCountTowardsMaximum
SciTegic.value.BooleanValue
FALSE

@<TRIPOS>MOLECULE
staurosporine
   37    44     0 0 0
SMALL
USER_CHARGES


@<TRIPOS>ATOM
      1 H1           -0.695626    3.958011   -1.146518 H        1 SUBUNIT    0.1500
      2 N2           -0.334826    3.164111   -0.899218 N.am     1 SUBUNIT   -0.3071
      3 C3           -1.099826    2.170311   -0.385518 C.2      1 SUBUNIT    0.2442
      4 C4           -0.119026    1.112213   -0.036118 C.ar     1 SUBUNIT    0.0521
      5 C5            1.165474    1.531413   -0.413618 C.ar     1 SUBUNIT   -0.0080
      6 C6            1.122674    2.921211   -1.035418 C.3      1 SUBUNIT    0.1417
      7 O7           -2.322628    2.233311   -0.275618 O.2      1 SUBUNIT   -0.2719
      8 C8           -0.292926   -0.156187    0.577882 C.ar     1 SUBUNIT    0.0164
      9 C9            0.834374   -0.971188    0.774982 C.ar     1 SUBUNIT    0.0522
     10 C10           2.126373   -0.553687    0.387282 C.ar     1 SUBUNIT    0.0521
     11 C11           2.288972    0.706212   -0.202018 C.ar     1 SUBUNIT    0.0091
     12 C12           3.662172    0.882112   -0.467318 C.ar     1 SUBUNIT    0.0023
     13 C13           4.355773   -0.257787   -0.040818 C.ar     1 SUBUNIT    0.0325
     14 N14           3.404472   -1.253787    0.501882 N.ar     1 SUBUNIT   -0.2102
     15 C15           4.332173    1.978711   -1.043718 C.ar     1 SUBUNIT    0.0103
     16 C16           5.736873    1.917512   -1.179318 C.ar     1 SUBUNIT    0.0008
     17 C17           6.447973    0.781812   -0.742318 C.ar     1 SUBUNIT    0.0017
     18 C18           5.761273   -0.310887   -0.165418 C.ar     1 SUBUNIT    0.0211
     19 N19           0.459574   -2.216089    1.403582 N.ar     1 SUBUNIT   -0.2149
     20 C20          -0.982226   -2.115488    1.570082 C.ar     1 SUBUNIT    0.0322
     21 C21          -1.425026   -0.873588    1.084982 C.ar     1 SUBUNIT    0.0027
     22 C22          -2.793528   -0.540787    1.153382 C.ar     1 SUBUNIT    0.0103
     23 C23          -3.693328   -1.479387    1.711082 C.ar     1 SUBUNIT    0.0008
     24 C24          -3.242328   -2.726389    2.189981 C.ar     1 SUBUNIT    0.0017
     25 C25          -1.872427   -3.057589    2.123381 C.ar     1 SUBUNIT    0.0211
     26 C26           1.304674   -3.374389    1.651082 C.3      1 SUBUNIT    0.2014
     27 O27           2.463772   -3.491189    0.773482 O.3      1 SUBUNIT   -0.3381
     28 C28           3.610972   -2.622689    1.055782 C.3      1 SUBUNIT    0.1566
     29 C29           1.677974   -3.562189    3.157681 C.3      1 SUBUNIT    0.0709
     30 C30           3.212072   -3.726089    3.376781 C.3      1 SUBUNIT    0.0904
     31 C31           3.945972   -2.577089    2.607381 C.3      1 SUBUNIT    0.1821
     32 C32           4.725574   -3.403389    0.292882 C.3      1 SUBUNIT    0.0642
     33 N33           3.619772   -3.806189    4.822886 N.3      1 SUBUNIT   -0.3142
     34 H34           4.577573   -3.858389    4.872286 H        1 SUBUNIT    0.1223
     35 C35           3.056972   -4.987388    5.538986 C.3      1 SUBUNIT    0.1013
     36 O36           3.671072   -1.273687    3.201381 O.3      1 SUBUNIT   -0.3753
     37 C37           4.741973   -0.765688    4.043582 C.3      1 SUBUNIT    0.1951
@<TRIPOS>BOND
     1    1    2 1
     2    2    3 1
     3    2    6 1
     4    3    4 1
     5    3    7 2
     6    4    5 ar
     7    4    8 ar
     8    5    6 1
     9    5   11 ar
    10    8    9 ar
    11    8   21 ar
    12    9   10 ar
    13    9   19 ar
    14   10   11 ar
    15   10   14 ar
    16   11   12 ar
    17   12   13 ar
    18   12   15 ar
    19   13   14 ar
    20   13   18 ar
    21   14   28 1
    22   15   16 ar
    23   16   17 ar
    24   17   18 ar
    25   19   20 ar
    26   19   26 1
    27   20   21 ar
    28   20   25 ar
    29   21   22 ar
    30   22   23 ar
    31   23   24 ar
    32   24   25 ar
    33   26   27 1
    34   26   29 1
    35   27   28 1
    36   28   31 1
    37   28   32 1
    38   29   30 1
    39   30   31 1
    40   30   33 1
    41   31   36 1
    42   33   34 1
    43   33   35 1
    44   36   37 1
@<SCITEGIC>ATOM_PROPERTY
Formal Charge
SciTegic.value.StringValue
1 0
2 0
3 0
4 0
5 0
6 0
7 0
8 0
9 0
10 0
11 0
12 0
13 0
14 0
15 0
16 0
17 0
18 0
19 0
20 0
21 0
22 0
23 0
24 0
25 0
26 0
27 0
28 0
29 0
30 0
31 0
32 0
33 0
34 0
35 0
36 0
37 0

@<SCITEGIC>ATOM_PROPERTY
pdb_tempFactor
SciTegic.value.DoubleValue
1 0.00
2 0.00
3 0.00
4 0.00
5 0.00
6 0.00
7 0.00
8 0.00
9 0.00
10 0.00
11 0.00
12 0.00
13 0.00
14 0.00
15 0.00
16 0.00
17 0.00
18 0.00
19 0.00
20 0.00
21 0.00
22 0.00
23 0.00
24 0.00
25 0.00
26 0.00
27 0.00
28 0.00
29 0.00
30 0.00
31 0.00
32 0.00
33 0.00
34 0.00
35 0.00
36 0.00
37 0.00

@<SCITEGIC>ATOM_PROPERTY
pdb_occupancy
SciTegic.value.DoubleValue
1 1.00
2 1.00
3 1.00
4 1.00
5 1.00
6 1.00
7 1.00
8 1.00
9 1.00
10 1.00
11 1.00
12 1.00
13 1.00
14 1.00
15 1.00
16 1.00
17 1.00
18 1.00
19 1.00
20 1.00
21 1.00
22 1.00
23 1.00
24 1.00
25 1.00
26 1.00
27 1.00
28 1.00
29 1.00
30 1.00
31 1.00
32 1.00
33 1.00
34 1.00
35 1.00
36 1.00
37 1.00

#	Copyright 2023 drugdesign.org
#	Creation time:	2024-01-11T10:51:50Z

@<SCITEGIC>ROOT_PROPERTY
Ligand:MaximumNumberOfAtoms
SciTegic.value.IntegerValue
100

@<SCITEGIC>ROOT_PROPERTY
Ligand:HydrogenAtomsCountTowardsMaximum
SciTegic.value.BooleanValue
FALSE

@<TRIPOS>MOLECULE
staurosporine
   37    42     0 0 0
SMALL
USER_CHARGES


@<TRIPOS>ATOM
      1 H1          -11.663267    0.328592    1.866572 H        1 SUBUNIT    0.1500
      2 N2          -11.302466   -0.465308    2.113873 N.am     1 SUBUNIT   -0.3071
      3 C3          -12.067467   -1.459109    2.627573 C.2      1 SUBUNIT    0.2442
      4 C4          -11.086666   -2.517207    2.976972 C.ar     1 SUBUNIT    0.0521
      5 C5           -9.802163   -2.098007    2.599473 C.ar     1 SUBUNIT   -0.0080
      6 C6           -9.844964   -0.708208    1.977672 C.3      1 SUBUNIT    0.1417
      7 O7          -13.290270   -1.396108    2.737473 O.2      1 SUBUNIT   -0.2719
      8 C8          -11.260567   -3.785607    3.590973 C.ar     1 SUBUNIT    0.0164
      9 C9          -10.133265   -4.600606    3.788073 C.ar     1 SUBUNIT    0.0522
     10 C10          -8.841265   -4.183105    3.400372 C.ar     1 SUBUNIT    0.0521
     11 C11          -8.678665   -2.923208    2.811073 C.ar     1 SUBUNIT    0.0091
     12 C12          -7.305453   -2.747308    2.545773 C.ar     1 SUBUNIT    0.0023
     13 C13          -6.611851   -3.887207    2.972273 C.ar     1 SUBUNIT    0.0325
     14 N14          -7.563152   -4.883204    3.514972 N.ar     1 SUBUNIT   -0.2102
     15 C15          -6.635451   -1.650709    1.969372 C.ar     1 SUBUNIT    0.0103
     16 C16          -5.230752   -1.711909    1.833772 C.ar     1 SUBUNIT    0.0008
     17 C17          -4.519653   -2.847608    2.270773 C.ar     1 SUBUNIT    0.0017
     18 C18          -5.206352   -3.940306    2.847673 C.ar     1 SUBUNIT    0.0211
     19 N19         -10.508066   -5.845505    4.416674 N.ar     1 SUBUNIT   -0.2149
     20 C20         -11.949867   -5.744904    4.583174 C.ar     1 SUBUNIT    0.0322
     21 C21         -12.392666   -4.503006    4.098073 C.ar     1 SUBUNIT    0.0027
     22 C22         -13.761170   -4.170206    4.166473 C.ar     1 SUBUNIT    0.0103
     23 C23         -14.660971   -5.108803    4.724174 C.ar     1 SUBUNIT    0.0008
     24 C24         -14.209970   -6.355804    5.203075 C.ar     1 SUBUNIT    0.0017
     25 C25         -12.840068   -6.687005    5.136475 C.ar     1 SUBUNIT    0.0211
     26 C26          -9.662964   -7.003804    4.664174 C.3      1 SUBUNIT    0.2014
     27 O27          -8.503864   -7.120605    3.786573 O.3      1 SUBUNIT   -0.3381
     28 C28          -7.356653   -6.252105    4.068873 C.3      1 SUBUNIT    0.1566
     29 C29          -9.289663   -7.191605    6.170775 C.3      1 SUBUNIT    0.0709
     30 C30          -7.755557   -7.355504    6.389875 C.3      1 SUBUNIT    0.0904
     31 C31          -7.021653   -6.206505    5.620475 C.3      1 SUBUNIT    0.1821
     32 C32          -6.242051   -7.032804    3.305972 C.3      1 SUBUNIT    0.0642
     33 N33          -7.347853   -7.435604    7.835974 N.3      1 SUBUNIT   -0.3142
     34 H34          -6.390050   -7.487804    7.885374 H        1 SUBUNIT    0.1223
     35 C35          -7.910661   -8.616801    8.552072 C.3      1 SUBUNIT    0.1013
     36 O36          -7.296553   -4.903104    6.214476 O.3      1 SUBUNIT   -0.3753
     37 C37          -6.225651   -4.395106    7.056671 C.3      1 SUBUNIT    0.1951
@<TRIPOS>BOND
     1    1    2 1
     2    2    3 1
     3    2    6 1
     4    3    4 1
     5    3    7 2
     6    4    5 ar
     7    4    8 ar
     8    5    6 1
     9    5   11 ar
    10    8    9 ar
    11    9   10 ar
    12    9   19 ar
    13   10   11 ar
    14   10   14 ar
    15   12   13 ar
    16   12   15 ar
    17   13   14 ar
    18   13   18 ar
    19   14   28 1
    20   15   16 ar
    21   16   17 ar
    22   17   18 ar
    23   19   20 ar
    24   19   26 1
    25   20   21 ar
    26   20   25 ar
    27   21   22 ar
    28   22   23 ar
    29   23   24 ar
    30   24   25 ar
    31   26   27 1
    32   26   29 1
    33   27   28 1
    34   28   31 1
    35   28   32 1
    36   29   30 1
    37   30   31 1
    38   30   33 1
    39   31   36 1
    40   33   34 1
    41   33   35 1
    42   36   37 1
@<SCITEGIC>ATOM_PROPERTY
Formal Charge
SciTegic.value.StringValue
1 0
2 0
3 0
4 0
5 0
6 0
7 0
8 0
9 0
10 0
11 0
12 0
13 0
14 0
15 0
16 0
17 0
18 0
19 0
20 0
21 0
22 0
23 0
24 0
25 0
26 0
27 0
28 0
29 0
30 0
31 0
32 0
33 0
34 0
35 0
36 0
37 0

@<SCITEGIC>ATOM_PROPERTY
pdb_tempFactor
SciTegic.value.DoubleValue
1 0.00
2 0.00
3 0.00
4 0.00
5 0.00
6 0.00
7 0.00
8 0.00
9 0.00
10 0.00
11 0.00
12 0.00
13 0.00
14 0.00
15 0.00
16 0.00
17 0.00
18 0.00
19 0.00
20 0.00
21 0.00
22 0.00
23 0.00
24 0.00
25 0.00
26 0.00
27 0.00
28 0.00
29 0.00
30 0.00
31 0.00
32 0.00
33 0.00
34 0.00
35 0.00
36 0.00
37 0.00

@<SCITEGIC>ATOM_PROPERTY
pdb_occupancy
SciTegic.value.DoubleValue
1 1.00
2 1.00
3 1.00
4 1.00
5 1.00
6 1.00
7 1.00
8 1.00
9 1.00
10 1.00
11 1.00
12 1.00
13 1.00
14 1.00
15 1.00
16 1.00
17 1.00
18 1.00
19 1.00
20 1.00
21 1.00
22 1.00
23 1.00
24 1.00
25 1.00
26 1.00
27 1.00
28 1.00
29 1.00
30 1.00
31 1.00
32 1.00
33 1.00
34 1.00
35 1.00
36 1.00
37 1.00

#	Copyright 2023 drugdesign.org
#	Creation time:	2024-01-11T10:51:50Z

@<SCITEGIC>ROOT_PROPERTY
Ligand:MaximumNumberOfAtoms
SciTegic.value.IntegerValue
100

@<SCITEGIC>ROOT_PROPERTY
Ligand:HydrogenAtomsCountTowardsMaximum
SciTegic.value.BooleanValue
FALSE

@<TRIPOS>MOLECULE
staurosporine
   37    44     0 0 0
SMALL
USER_CHARGES


@<TRIPOS>ATOM
      1 H1           -0.695626    3.958011   -1.146518 H        1 SUBUNIT    0.1500
      2 N2           -0.334826    3.164111   -0.899218 N.am     1 SUBUNIT   -0.3071
      3 C3           -1.099826    2.170311   -0.385518 C.2      1 SUBUNIT    0.2442
      4 C4           -0.119026    1.112213   -0.036118 C.ar     1 SUBUNIT    0.0521
      5 C5            1.165474    1.531413   -0.413618 C.ar     1 SUBUNIT   -0.0080
      6 C6            1.122674    2.921211   -1.035418 C.3      1 SUBUNIT    0.1417
      7 O7           -2.322628    2.233311   -0.275618 O.2      1 SUBUNIT   -0.2719
      8 C8           -0.292926   -0.156187    0.577882 C.ar     1 SUBUNIT    0.0164
      9 C9            0.834374   -0.971188    0.774982 C.ar     1 SUBUNIT    0.0522
     10 C10           2.126373   -0.553687    0.387282 C.ar     1 SUBUNIT    0.0521
     11 C11           2.288972    0.706212   -0.202018 C.ar     1 SUBUNIT    0.0091
     12 C12           3.662172    0.882112   -0.467318 C.ar     1 SUBUNIT    0.0023
     13 C13           4.355773   -0.257787   -0.040818 C.ar     1 SUBUNIT    0.0325
     14 N14           3.404472   -1.253787    0.501882 N.ar     1 SUBUNIT   -0.2102
     15 C15           4.332173    1.978711   -1.043718 C.ar     1 SUBUNIT    0.0103
     16 C16           5.736873    1.917512   -1.179318 C.ar     1 SUBUNIT    0.0008
     17 C17           6.447973    0.781812   -0.742318 C.ar     1 SUBUNIT    0.0017
     18 C18           5.761273   -0.310887   -0.165418 C.ar     1 SUBUNIT    0.0211
     19 N19           0.459574   -2.216089    1.403582 N.ar     1 SUBUNIT   -0.2149
     20 C20          -0.982226   -2.115488    1.570082 C.ar     1 SUBUNIT    0.0322
     21 C21          -1.425026   -0.873588    1.084982 C.ar     1 SUBUNIT    0.0027
     22 C22          -2.793528   -0.540787    1.153382 C.ar     1 SUBUNIT    0.0103
     23 C23          -3.693328   -1.479387    1.711082 C.ar     1 SUBUNIT    0.0008
     24 C24          -3.242328   -2.726389    2.189981 C.ar     1 SUBUNIT    0.0017
     25 C25          -1.872427   -3.057589    2.123381 C.ar     1 SUBUNIT    0.0211
     26 C26           1.304674   -3.374389    1.651082 C.3      1 SUBUNIT    0.2014
     27 O27           2.463772   -3.491189    0.773482 O.3      1 SUBUNIT   -0.3381
     28 C28           3.610972   -2.622689    1.055782 C.3      1 SUBUNIT    0.1566
     29 C29           1.677974   -3.562189    3.157681 C.3      1 SUBUNIT    0.0709
     30 C30           3.212072   -3.726089    3.376781 C.3      1 SUBUNIT    0.0904
     31 C31           3.945972   -2.577089    2.607381 C.3      1 SUBUNIT    0.1821
     32 C32           4.725574   -3.403389    0.292882 C.3      1 SUBUNIT    0.0642
     33 N33           3.619772   -3.806189    4.822886 N.3      1 SUBUNIT   -0.3142
     34 H34           4.577573   -3.858389    4.872286 H        1 SUBUNIT    0.1223
     35 C35           3.056972   -4.987388    5.538986 C.3      1 SUBUNIT    0.1013
     36 O36           3.671072   -1.273687    3.201381 O.3      1 SUBUNIT   -0.3753
     37 C37           4.741973   -0.765688    4.043582 C.3      1 SUBUNIT    0.1951
@<TRIPOS>BOND
     1    1    2 1
     2    2    3 1
     3    2    6 1
     4    3    4 1
     5    3    7 2
     6    4    5 ar
     7    4    8 ar
     8    5    6 1
     9    5   11 ar
    10    8    9 ar
    11    8   21 ar
    12    9   10 ar
    13    9   19 ar
    14   10   11 ar
    15   10   14 ar
    16   11   12 ar
    17   12   13 ar
    18   12   15 ar
    19   13   14 ar
    20   13   18 ar
    21   14   28 1
    22   15   16 ar
    23   16   17 ar
    24   17   18 ar
    25   19   20 ar
    26   19   26 1
    27   20   21 ar
    28   20   25 ar
    29   21   22 ar
    30   22   23 ar
    31   23   24 ar
    32   24   25 ar
    33   26   27 1
    34   26   29 1
    35   27   28 1
    36   28   31 1
    37   28   32 1
    38   29   30 1
    39   30   31 1
    40   30   33 1
    41   31   36 1
    42   33   34 1
    43   33   35 1
    44   36   37 1
@<SCITEGIC>ATOM_PROPERTY
Formal Charge
SciTegic.value.StringValue
1 0
2 0
3 0
4 0
5 0
6 0
7 0
8 0
9 0
10 0
11 0
12 0
13 0
14 0
15 0
16 0
17 0
18 0
19 0
20 0
21 0
22 0
23 0
24 0
25 0
26 0
27 0
28 0
29 0
30 0
31 0
32 0
33 0
34 0
35 0
36 0
37 0

@<SCITEGIC>ATOM_PROPERTY
pdb_tempFactor
SciTegic.value.DoubleValue
1 0.00
2 0.00
3 0.00
4 0.00
5 0.00
6 0.00
7 0.00
8 0.00
9 0.00
10 0.00
11 0.00
12 0.00
13 0.00
14 0.00
15 0.00
16 0.00
17 0.00
18 0.00
19 0.00
20 0.00
21 0.00
22 0.00
23 0.00
24 0.00
25 0.00
26 0.00
27 0.00
28 0.00
29 0.00
30 0.00
31 0.00
32 0.00
33 0.00
34 0.00
35 0.00
36 0.00
37 0.00

@<SCITEGIC>ATOM_PROPERTY
pdb_occupancy
SciTegic.value.DoubleValue
1 1.00
2 1.00
3 1.00
4 1.00
5 1.00
6 1.00
7 1.00
8 1.00
9 1.00
10 1.00
11 1.00
12 1.00
13 1.00
14 1.00
15 1.00
16 1.00
17 1.00
18 1.00
19 1.00
20 1.00
21 1.00
22 1.00
23 1.00
24 1.00
25 1.00
26 1.00
27 1.00
28 1.00
29 1.00
30 1.00
31 1.00
32 1.00
33 1.00
34 1.00
35 1.00
36 1.00
37 1.00

#	Copyright 2023 drugdesign.org
#	Creation time:	2024-01-11T10:51:50Z

@<SCITEGIC>ROOT_PROPERTY
Ligand:MaximumNumberOfAtoms
SciTegic.value.IntegerValue
100

@<SCITEGIC>ROOT_PROPERTY
Ligand:HydrogenAtomsCountTowardsMaximum
SciTegic.value.BooleanValue
FALSE

@<TRIPOS>MOLECULE
staurosporine
   37    42     0 0 0
SMALL
USER_CHARGES


@<TRIPOS>ATOM
      1 H1          -11.663267    0.328592    1.866572 H        1 SUBUNIT    0.1500
      2 N2          -11.302466   -0.465308    2.113873 N.am     1 SUBUNIT   -0.3071
      3 C3          -12.067467   -1.459109    2.627573 C.2      1 SUBUNIT    0.2442
      4 C4          -11.086666   -2.517207    2.976972 C.ar     1 SUBUNIT    0.0521
      5 C5           -9.802163   -2.098007    2.599473 C.ar     1 SUBUNIT   -0.0080
      6 C6           -9.844964   -0.708208    1.977672 C.3      1 SUBUNIT    0.1417
      7 O7          -13.290270   -1.396108    2.737473 O.2      1 SUBUNIT   -0.2719
      8 C8          -11.260567   -3.785607    3.590973 C.ar     1 SUBUNIT    0.0164
      9 C9          -10.133265   -4.600606    3.788073 C.ar     1 SUBUNIT    0.0522
     10 C10          -8.841265   -4.183105    3.400372 C.ar     1 SUBUNIT    0.0521
     11 C11          -8.678665   -2.923208    2.811073 C.ar     1 SUBUNIT    0.0091
     12 C12          -7.305453   -2.747308    2.545773 C.ar     1 SUBUNIT    0.0023
     13 C13          -6.611851   -3.887207    2.972273 C.ar     1 SUBUNIT    0.0325
     14 N14          -7.563152   -4.883204    3.514972 N.pl3    1 SUBUNIT   -0.2102
     15 C15          -6.635451   -1.650709    1.969372 C.ar     1 SUBUNIT    0.0103
     16 C16          -5.230752   -1.711909    1.833772 C.ar     1 SUBUNIT    0.0008
     17 C17          -4.519653   -2.847608    2.270773 C.ar     1 SUBUNIT    0.0017
     18 C18          -5.206352   -3.940306    2.847673 C.ar     1 SUBUNIT    0.0211
     19 N19         -10.508066   -5.845505    4.416674 N.pl3    1 SUBUNIT   -0.2149
     20 C20         -11.949867   -5.744904    4.583174 C.ar     1 SUBUNIT    0.0322
     21 C21         -12.392666   -4.503006    4.098073 C.ar     1 SUBUNIT    0.0027
     22 C22         -13.761170   -4.170206    4.166473 C.ar     1 SUBUNIT    0.0103
     23 C23         -14.660971   -5.108803    4.724174 C.ar     1 SUBUNIT    0.0008
     24 C24         -14.209970   -6.355804    5.203075 C.ar     1 SUBUNIT    0.0017
     25 C25         -12.840068   -6.687005    5.136475 C.ar     1 SUBUNIT    0.0211
     26 C26          -9.662964   -7.003804    4.664174 C.3      1 SUBUNIT    0.2014
     27 O27          -8.503864   -7.120605    3.786573 O.3      1 SUBUNIT   -0.3381
     28 C28          -7.356653   -6.252105    4.068873 C.3      1 SUBUNIT    0.1566
     29 C29          -9.289663   -7.191605    6.170775 C.3      1 SUBUNIT    0.0709
     30 C30          -7.755557   -7.355504    6.389875 C.3      1 SUBUNIT    0.0904
     31 C31          -7.021653   -6.206505    5.620475 C.3      1 SUBUNIT    0.1821
     32 C32          -6.242051   -7.032804    3.305972 C.3      1 SUBUNIT    0.0642
     33 N33          -7.347853   -7.435604    7.835974 N.3      1 SUBUNIT   -0.3142
     34 H34          -6.390050   -7.487804    7.885374 H        1 SUBUNIT    0.1223
     35 C35          -7.910661   -8.616801    8.552072 C.3      1 SUBUNIT    0.1013
     36 O36          -7.296553   -4.903104    6.214476 O.3      1 SUBUNIT   -0.3753
     37 C37          -6.225651   -4.395106    7.056671 C.3      1 SUBUNIT    0.1951
@<TRIPOS>BOND
     1    1    2 1
     2    2    3 1
     3    2    6 1
     4    3    4 1
     5    3    7 2
     6    4    5 ar
     7    4    8 ar
     8    5    6 1
     9    5   11 ar
    10    8    9 ar
    11    9   10 ar
    12    9   19 1
    13   10   11 ar
    14   10   14 1
    15   12   13 ar
    16   12   15 ar
    17   13   14 1
    18   13   18 ar
    19   14   28 1
    20   15   16 ar
    21   16   17 ar
    22   17   18 ar
    23   19   20 1
    24   19   26 1
    25   20   21 ar
    26   20   25 ar
    27   21   22 ar
    28   22   23 ar
    29   23   24 ar
    30   24   25 ar
    31   26   27 1
    32   26   29 1
    33   27   28 1
    34   28   31 1
    35   28   32 1
    36   29   30 1
    37   30   31 1
    38   30   33 1
    39   31   36 1
    40   33   34 1
    41   33   35 1
    42   36   37 1
@<SCITEGIC>ATOM_PROPERTY
Formal Charge
SciTegic.value.StringValue
1 0
2 0
3 0
4 0
5 0
6 0
7 0
8 0
9 0
10 0
11 0
12 0
13 0
14 0
15 0
16 0
17 0
18 0
19 0
20 0
21 0
22 0
23 0
24 0
25 0
26 0
27 0
28 0
29 0
30 0
31 0
32 0
33 0
34 0
35 0
36 0
37 0

@<SCITEGIC>ATOM_PROPERTY
pdb_tempFactor
SciTegic.value.DoubleValue
1 0.00
2 0.00
3 0.00
4 0.00
5 0.00
6 0.00
7 0.00
8 0.00
9 0.00
10 0.00
11 0.00
12 0.00
13 0.00
14 0.00
15 0.00
16 0.00
17 0.00
18 0.00
19 0.00
20 0.00
21 0.00
22 0.00
23 0.00
24 0.00
25 0.00
26 0.00
27 0.00
28 0.00
29 0.00
30 0.00
31 0.00
32 0.00
33 0.00
34 0.00
35 0.00
36 0.00
37 0.00

@<SCITEGIC>ATOM_PROPERTY
pdb_occupancy
SciTegic.value.DoubleValue
1 1.00
2 1.00
3 1.00
4 1.00
5 1.00
6 1.00
7 1.00
8 1.00
9 1.00
10 1.00
11 1.00
12 1.00
13 1.00
14 1.00
15 1.00
16 1.00
17 1.00
18 1.00
19 1.00
20 1.00
21 1.00
22 1.00
23 1.00
24 1.00
25 1.00
26 1.00
27 1.00
28 1.00
29 1.00
30 1.00
31 1.00
32 1.00
33 1.00
34 1.00
35 1.00
36 1.00
37 1.00

#	Copyright 2023 drugdesign.org
#	Creation time:	2024-01-11T10:51:50Z

@<SCITEGIC>ROOT_PROPERTY
Ligand:MaximumNumberOfAtoms
SciTegic.value.IntegerValue
100

@<SCITEGIC>ROOT_PROPERTY
Ligand:HydrogenAtomsCountTowardsMaximum
SciTegic.value.BooleanValue
FALSE

@<TRIPOS>MOLECULE
staurosporine
   37    44     0 0 0
SMALL
USER_CHARGES


@<TRIPOS>ATOM
      1 H1           -0.695626    3.958011   -1.146518 H        1 SUBUNIT    0.1500
      2 N2           -0.334826    3.164111   -0.899218 N.am     1 SUBUNIT   -0.3071
      3 C3           -1.099826    2.170311   -0.385518 C.2      1 SUBUNIT    0.2442
      4 C4           -0.119026    1.112213   -0.036118 C.ar     1 SUBUNIT    0.0521
      5 C5            1.165474    1.531413   -0.413618 C.ar     1 SUBUNIT   -0.0080
      6 C6            1.122674    2.921211   -1.035418 C.3      1 SUBUNIT    0.1417
      7 O7           -2.322628    2.233311   -0.275618 O.2      1 SUBUNIT   -0.2719
      8 C8           -0.292926   -0.156187    0.577882 C.ar     1 SUBUNIT    0.0164
      9 C9            0.834374   -0.971188    0.774982 C.ar     1 SUBUNIT    0.0522
     10 C10           2.126373   -0.553687    0.387282 C.ar     1 SUBUNIT    0.0521
     11 C11           2.288972    0.706212   -0.202018 C.ar     1 SUBUNIT    0.0091
     12 C12           3.662172    0.882112   -0.467318 C.ar     1 SUBUNIT    0.0023
     13 C13           4.355773   -0.257787   -0.040818 C.ar     1 SUBUNIT    0.0325
     14 N14           3.404472   -1.253787    0.501882 N.ar     1 SUBUNIT   -0.2102
     15 C15           4.332173    1.978711   -1.043718 C.ar     1 SUBUNIT    0.0103
     16 C16           5.736873    1.917512   -1.179318 C.ar     1 SUBUNIT    0.0008
     17 C17           6.447973    0.781812   -0.742318 C.ar     1 SUBUNIT    0.0017
     18 C18           5.761273   -0.310887   -0.165418 C.ar     1 SUBUNIT    0.0211
     19 N19           0.459574   -2.216089    1.403582 N.ar     1 SUBUNIT   -0.2149
     20 C20          -0.982226   -2.115488    1.570082 C.ar     1 SUBUNIT    0.0322
     21 C21          -1.425026   -0.873588    1.084982 C.ar     1 SUBUNIT    0.0027
     22 C22          -2.793528   -0.540787    1.153382 C.ar     1 SUBUNIT    0.0103
     23 C23          -3.693328   -1.479387    1.711082 C.ar     1 SUBUNIT    0.0008
     24 C24          -3.242328   -2.726389    2.189981 C.ar     1 SUBUNIT    0.0017
     25 C25          -1.872427   -3.057589    2.123381 C.ar     1 SUBUNIT    0.0211
     26 C26           1.304674   -3.374389    1.651082 C.3      1 SUBUNIT    0.2014
     27 O27           2.463772   -3.491189    0.773482 O.3      1 SUBUNIT   -0.3381
     28 C28           3.610972   -2.622689    1.055782 C.3      1 SUBUNIT    0.1566
     29 C29           1.677974   -3.562189    3.157681 C.3      1 SUBUNIT    0.0709
     30 C30           3.212072   -3.726089    3.376781 C.3      1 SUBUNIT    0.0904
     31 C31           3.945972   -2.577089    2.607381 C.3      1 SUBUNIT    0.1821
     32 C32           4.725574   -3.403389    0.292882 C.3      1 SUBUNIT    0.0642
     33 N33           3.619772   -3.806189    4.822886 N.3      1 SUBUNIT   -0.3142
     34 H34           4.577573   -3.858389    4.872286 H        1 SUBUNIT    0.1223
     35 C35           3.056972   -4.987388    5.538986 C.3      1 SUBUNIT    0.1013
     36 O36           3.671072   -1.273687    3.201381 O.3      1 SUBUNIT   -0.3753
     37 C37           4.741973   -0.765688    4.043582 C.3      1 SUBUNIT    0.1951
@<TRIPOS>BOND
     1    1    2 1
     2    2    3 1
     3    2    6 1
     4    3    4 1
     5    3    7 2
     6    4    5 ar
     7    4    8 ar
     8    5    6 1
     9    5   11 ar
    10    8    9 ar
    11    8   21 ar
    12    9   10 ar
    13    9   19 ar
    14   10   11 ar
    15   10   14 ar
    16   11   12 ar
    17   12   13 ar
    18   12   15 ar
    19   13   14 ar
    20   13   18 ar
    21   14   28 1
    22   15   16 ar
    23   16   17 ar
    24   17   18 ar
    25   19   20 ar
    26   19   26 1
    27   20   21 ar
    28   20   25 ar
    29   21   22 ar
    30   22   23 ar
    31   23   24 ar
    32   24   25 ar
    33   26   27 1
    34   26   29 1
    35   27   28 1
    36   28   31 1
    37   28   32 1
    38   29   30 1
    39   30   31 1
    40   30   33 1
    41   31   36 1
    42   33   34 1
    43   33   35 1
    44   36   37 1
@<SCITEGIC>ATOM_PROPERTY
Formal Charge
SciTegic.value.StringValue
1 0
2 0
3 0
4 0
5 0
6 0
7 0
8 0
9 0
10 0
11 0
12 0
13 0
14 0
15 0
16 0
17 0
18 0
19 0
20 0
21 0
22 0
23 0
24 0
25 0
26 0
27 0
28 0
29 0
30 0
31 0
32 0
33 0
34 0
35 0
36 0
37 0

@<SCITEGIC>ATOM_PROPERTY
pdb_tempFactor
SciTegic.value.DoubleValue
1 0.00
2 0.00
3 0.00
4 0.00
5 0.00
6 0.00
7 0.00
8 0.00
9 0.00
10 0.00
11 0.00
12 0.00
13 0.00
14 0.00
15 0.00
16 0.00
17 0.00
18 0.00
19 0.00
20 0.00
21 0.00
22 0.00
23 0.00
24 0.00
25 0.00
26 0.00
27 0.00
28 0.00
29 0.00
30 0.00
31 0.00
32 0.00
33 0.00
34 0.00
35 0.00
36 0.00
37 0.00

@<SCITEGIC>ATOM_PROPERTY
pdb_occupancy
SciTegic.value.DoubleValue
1 1.00
2 1.00
3 1.00
4 1.00
5 1.00
6 1.00
7 1.00
8 1.00
9 1.00
10 1.00
11 1.00
12 1.00
13 1.00
14 1.00
15 1.00
16 1.00
17 1.00
18 1.00
19 1.00
20 1.00
21 1.00
22 1.00
23 1.00
24 1.00
25 1.00
26 1.00
27 1.00
28 1.00
29 1.00
30 1.00
31 1.00
32 1.00
33 1.00
34 1.00
35 1.00
36 1.00
37 1.00

#	Copyright 2023 drugdesign.org
#	Creation time:	2024-01-11T10:51:50Z

@<SCITEGIC>ROOT_PROPERTY
Ligand:MaximumNumberOfAtoms
SciTegic.value.IntegerValue
100

@<SCITEGIC>ROOT_PROPERTY
Ligand:HydrogenAtomsCountTowardsMaximum
SciTegic.value.BooleanValue
FALSE

@<TRIPOS>MOLECULE
staurosporine
   27    30     0 0 0
SMALL
USER_CHARGES


@<TRIPOS>ATOM
      1 H1          -11.663267    0.328592    1.866572 H        1 SUBUNIT    0.1500
      2 N2          -11.302466   -0.465308    2.113873 N.am     1 SUBUNIT   -0.3071
      3 C3          -12.067467   -1.459109    2.627573 C.2      1 SUBUNIT    0.2442
      4 C4          -11.086666   -2.517207    2.976972 C.ar     1 SUBUNIT    0.0521
      5 C5           -9.802163   -2.098007    2.599473 C.ar     1 SUBUNIT   -0.0080
      6 C6           -9.844964   -0.708208    1.977672 C.3      1 SUBUNIT    0.1417
      7 O7          -13.290270   -1.396108    2.737473 O.2      1 SUBUNIT   -0.2719
      8 C8          -11.260567   -3.785607    3.590973 C.ar     1 SUBUNIT    0.0164
      9 C9          -10.133265   -4.600606    3.788073 C.ar     1 SUBUNIT    0.0522
     10 C10          -8.841265   -4.183105    3.400372 C.ar     1 SUBUNIT    0.0521
     11 C11          -8.678665   -2.923208    2.811073 C.ar     1 SUBUNIT    0.0091
     12 C12          -7.305453   -2.747308    2.545773 C.ar     1 SUBUNIT    0.0023
     13 C13          -6.611851   -3.887207    2.972273 C.ar     1 SUBUNIT    0.0325
     14 N14          -7.563152   -4.883204    3.514972 N.pl3    1 SUBUNIT   -0.2102
     15 C15          -6.635451   -1.650709    1.969372 C.ar     1 SUBUNIT    0.0103
     16 C16          -5.230752   -1.711909    1.833772 C.ar     1 SUBUNIT    0.0008
     17 C17          -4.519653   -2.847608    2.270773 C.ar     1 SUBUNIT    0.0017
     18 C18          -5.206352   -3.940306    2.847673 C.ar     1 SUBUNIT    0.0211
     19 N19         -10.508066   -5.845505    4.416674 N.pl3    1 SUBUNIT   -0.2149
     20 C20         -11.949867   -5.744904    4.583174 C.ar     1 SUBUNIT    0.0322
     21 C21         -12.392666   -4.503006    4.098073 C.ar     1 SUBUNIT    0.0027
     22 C22         -13.761170   -4.170206    4.166473 C.ar     1 SUBUNIT    0.0103
     23 C23         -14.660971   -5.108803    4.724174 C.ar     1 SUBUNIT    0.0008
     24 C24         -14.209970   -6.355804    5.203075 C.ar     1 SUBUNIT    0.0017
     25 C25         -12.840068   -6.687005    5.136475 C.ar     1 SUBUNIT    0.0211
     26 C26          -9.662964   -7.003804    4.664174 C.3      1 SUBUNIT    0.2014
     27 C28          -7.356653   -6.252105    4.068873 C.3      1 SUBUNIT    0.1566
@<TRIPOS>BOND
     1    1    2 1
     2    2    3 1
     3    2    6 1
     4    3    4 1
     5    3    7 2
     6    4    5 ar
     7    4    8 ar
     8    5    6 1
     9    5   11 ar
    10    8    9 ar
    11    9   10 ar
    12    9   19 1
    13   10   11 ar
    14   10   14 1
    15   12   13 ar
    16   12   15 ar
    17   13   14 1
    18   13   18 ar
    19   14   27 1
    20   15   16 ar
    21   16   17 ar
    22   17   18 ar
    23   19   20 1
    24   19   26 1
    25   20   21 ar
    26   20   25 ar
    27   21   22 ar
    28   22   23 ar
    29   23   24 ar
    30   24   25 ar
@<SCITEGIC>ATOM_PROPERTY
Formal Charge
SciTegic.value.StringValue
1 0
2 0
3 0
4 0
5 0
6 0
7 0
8 0
9 0
10 0
11 0
12 0
13 0
14 0
15 0
16 0
17 0
18 0
19 0
20 0
21 0
22 0
23 0
24 0
25 0
26 0
27 0

@<SCITEGIC>ATOM_PROPERTY
pdb_tempFactor
SciTegic.value.DoubleValue
1 0.00
2 0.00
3 0.00
4 0.00
5 0.00
6 0.00
7 0.00
8 0.00
9 0.00
10 0.00
11 0.00
12 0.00
13 0.00
14 0.00
15 0.00
16 0.00
17 0.00
18 0.00
19 0.00
20 0.00
21 0.00
22 0.00
23 0.00
24 0.00
25 0.00
26 0.00
27 0.00

@<SCITEGIC>ATOM_PROPERTY
pdb_occupancy
SciTegic.value.DoubleValue
1 1.00
2 1.00
3 1.00
4 1.00
5 1.00
6 1.00
7 1.00
8 1.00
9 1.00
10 1.00
11 1.00
12 1.00
13 1.00
14 1.00
15 1.00
16 1.00
17 1.00
18 1.00
19 1.00
20 1.00
21 1.00
22 1.00
23 1.00
24 1.00
25 1.00
26 1.00
27 1.00

#	Copyright 2023 drugdesign.org
#	Creation time:	2024-01-11T10:51:51Z

@<SCITEGIC>ROOT_PROPERTY
Ligand:MaximumNumberOfAtoms
SciTegic.value.IntegerValue
100

@<SCITEGIC>ROOT_PROPERTY
Ligand:HydrogenAtomsCountTowardsMaximum
SciTegic.value.BooleanValue
FALSE

@<TRIPOS>MOLECULE
staurosporine
   37    44     0 0 0
SMALL
USER_CHARGES


@<TRIPOS>ATOM
      1 H1           -0.695626    3.958011   -1.146518 H        1 SUBUNIT    0.1500
      2 N2           -0.334826    3.164111   -0.899218 N.am     1 SUBUNIT   -0.3071
      3 C3           -1.099826    2.170311   -0.385518 C.2      1 SUBUNIT    0.2442
      4 C4           -0.119026    1.112213   -0.036118 C.ar     1 SUBUNIT    0.0521
      5 C5            1.165474    1.531413   -0.413618 C.ar     1 SUBUNIT   -0.0080
      6 C6            1.122674    2.921211   -1.035418 C.3      1 SUBUNIT    0.1417
      7 O7           -2.322628    2.233311   -0.275618 O.2      1 SUBUNIT   -0.2719
      8 C8           -0.292926   -0.156187    0.577882 C.ar     1 SUBUNIT    0.0164
      9 C9            0.834374   -0.971188    0.774982 C.ar     1 SUBUNIT    0.0522
     10 C10           2.126373   -0.553687    0.387282 C.ar     1 SUBUNIT    0.0521
     11 C11           2.288972    0.706212   -0.202018 C.ar     1 SUBUNIT    0.0091
     12 C12           3.662172    0.882112   -0.467318 C.ar     1 SUBUNIT    0.0023
     13 C13           4.355773   -0.257787   -0.040818 C.ar     1 SUBUNIT    0.0325
     14 N14           3.404472   -1.253787    0.501882 N.ar     1 SUBUNIT   -0.2102
     15 C15           4.332173    1.978711   -1.043718 C.ar     1 SUBUNIT    0.0103
     16 C16           5.736873    1.917512   -1.179318 C.ar     1 SUBUNIT    0.0008
     17 C17           6.447973    0.781812   -0.742318 C.ar     1 SUBUNIT    0.0017
     18 C18           5.761273   -0.310887   -0.165418 C.ar     1 SUBUNIT    0.0211
     19 N19           0.459574   -2.216089    1.403582 N.ar     1 SUBUNIT   -0.2149
     20 C20          -0.982226   -2.115488    1.570082 C.ar     1 SUBUNIT    0.0322
     21 C21          -1.425026   -0.873588    1.084982 C.ar     1 SUBUNIT    0.0027
     22 C22          -2.793528   -0.540787    1.153382 C.ar     1 SUBUNIT    0.0103
     23 C23          -3.693328   -1.479387    1.711082 C.ar     1 SUBUNIT    0.0008
     24 C24          -3.242328   -2.726389    2.189981 C.ar     1 SUBUNIT    0.0017
     25 C25          -1.872427   -3.057589    2.123381 C.ar     1 SUBUNIT    0.0211
     26 C26           1.304674   -3.374389    1.651082 C.3      1 SUBUNIT    0.2014
     27 O27           2.463772   -3.491189    0.773482 O.3      1 SUBUNIT   -0.3381
     28 C28           3.610972   -2.622689    1.055782 C.3      1 SUBUNIT    0.1566
     29 C29           1.677974   -3.562189    3.157681 C.3      1 SUBUNIT    0.0709
     30 C30           3.212072   -3.726089    3.376781 C.3      1 SUBUNIT    0.0904
     31 C31           3.945972   -2.577089    2.607381 C.3      1 SUBUNIT    0.1821
     32 C32           4.725574   -3.403389    0.292882 C.3      1 SUBUNIT    0.0642
     33 N33           3.619772   -3.806189    4.822886 N.3      1 SUBUNIT   -0.3142
     34 H34           4.577573   -3.858389    4.872286 H        1 SUBUNIT    0.1223
     35 C35           3.056972   -4.987388    5.538986 C.3      1 SUBUNIT    0.1013
     36 O36           3.671072   -1.273687    3.201381 O.3      1 SUBUNIT   -0.3753
     37 C37           4.741973   -0.765688    4.043582 C.3      1 SUBUNIT    0.1951
@<TRIPOS>BOND
     1    1    2 1
     2    2    3 1
     3    2    6 1
     4    3    4 1
     5    3    7 2
     6    4    5 ar
     7    4    8 ar
     8    5    6 1
     9    5   11 ar
    10    8    9 ar
    11    8   21 ar
    12    9   10 ar
    13    9   19 ar
    14   10   11 ar
    15   10   14 ar
    16   11   12 ar
    17   12   13 ar
    18   12   15 ar
    19   13   14 ar
    20   13   18 ar
    21   14   28 1
    22   15   16 ar
    23   16   17 ar
    24   17   18 ar
    25   19   20 ar
    26   19   26 1
    27   20   21 ar
    28   20   25 ar
    29   21   22 ar
    30   22   23 ar
    31   23   24 ar
    32   24   25 ar
    33   26   27 1
    34   26   29 1
    35   27   28 1
    36   28   31 1
    37   28   32 1
    38   29   30 1
    39   30   31 1
    40   30   33 1
    41   31   36 1
    42   33   34 1
    43   33   35 1
    44   36   37 1
@<SCITEGIC>ATOM_PROPERTY
Formal Charge
SciTegic.value.StringValue
1 0
2 0
3 0
4 0
5 0
6 0
7 0
8 0
9 0
10 0
11 0
12 0
13 0
14 0
15 0
16 0
17 0
18 0
19 0
20 0
21 0
22 0
23 0
24 0
25 0
26 0
27 0
28 0
29 0
30 0
31 0
32 0
33 0
34 0
35 0
36 0
37 0

@<SCITEGIC>ATOM_PROPERTY
pdb_tempFactor
SciTegic.value.DoubleValue
1 0.00
2 0.00
3 0.00
4 0.00
5 0.00
6 0.00
7 0.00
8 0.00
9 0.00
10 0.00
11 0.00
12 0.00
13 0.00
14 0.00
15 0.00
16 0.00
17 0.00
18 0.00
19 0.00
20 0.00
21 0.00
22 0.00
23 0.00
24 0.00
25 0.00
26 0.00
27 0.00
28 0.00
29 0.00
30 0.00
31 0.00
32 0.00
33 0.00
34 0.00
35 0.00
36 0.00
37 0.00

@<SCITEGIC>ATOM_PROPERTY
pdb_occupancy
SciTegic.value.DoubleValue
1 1.00
2 1.00
3 1.00
4 1.00
5 1.00
6 1.00
7 1.00
8 1.00
9 1.00
10 1.00
11 1.00
12 1.00
13 1.00
14 1.00
15 1.00
16 1.00
17 1.00
18 1.00
19 1.00
20 1.00
21 1.00
22 1.00
23 1.00
24 1.00
25 1.00
26 1.00
27 1.00
28 1.00
29 1.00
30 1.00
31 1.00
32 1.00
33 1.00
34 1.00
35 1.00
36 1.00
37 1.00

#	Copyright 2023 drugdesign.org
#	Creation time:	2024-01-11T10:51:51Z

@<SCITEGIC>ROOT_PROPERTY
Ligand:MaximumNumberOfAtoms
SciTegic.value.IntegerValue
100

@<SCITEGIC>ROOT_PROPERTY
Ligand:HydrogenAtomsCountTowardsMaximum
SciTegic.value.BooleanValue
FALSE

@<TRIPOS>MOLECULE
staurosporine
   28    31     0 0 0
SMALL
USER_CHARGES


@<TRIPOS>ATOM
      1 H1          -11.707929    0.405253    1.835082 H        1 SUBUNIT    0.1500
      2 N2          -11.302466   -0.465308    2.113873 N.am     1 SUBUNIT   -0.3071
      3 C3          -12.067467   -1.459109    2.627573 C.2      1 SUBUNIT    0.2442
      4 C4          -11.086666   -2.517207    2.976972 C.ar     1 SUBUNIT    0.0521
      5 C5           -9.802163   -2.098007    2.599473 C.ar     1 SUBUNIT   -0.0080
      6 C6           -9.844964   -0.708208    1.977672 C.2      1 SUBUNIT    0.1417
      7 O7          -13.290270   -1.396108    2.737473 O.2      1 SUBUNIT   -0.2719
      8 C8          -11.260567   -3.785607    3.590973 C.ar     1 SUBUNIT    0.0164
      9 C9          -10.133265   -4.600606    3.788073 C.ar     1 SUBUNIT    0.0522
     10 C10          -8.841265   -4.183105    3.400372 C.ar     1 SUBUNIT    0.0521
     11 C11          -8.678665   -2.923208    2.811073 C.ar     1 SUBUNIT    0.0091
     12 C12          -7.305453   -2.747308    2.545773 C.ar     1 SUBUNIT    0.0023
     13 C13          -6.611851   -3.887207    2.972273 C.ar     1 SUBUNIT    0.0325
     14 N14          -7.563152   -4.883204    3.514972 N.pl3    1 SUBUNIT   -0.2102
     15 C15          -6.635451   -1.650709    1.969372 C.ar     1 SUBUNIT    0.0103
     16 C16          -5.230752   -1.711909    1.833772 C.ar     1 SUBUNIT    0.0008
     17 C17          -4.519653   -2.847608    2.270773 C.ar     1 SUBUNIT    0.0017
     18 C18          -5.206352   -3.940306    2.847673 C.ar     1 SUBUNIT    0.0211
     19 N19         -10.508066   -5.845505    4.416674 N.pl3    1 SUBUNIT   -0.2149
     20 C20         -11.949867   -5.744904    4.583174 C.ar     1 SUBUNIT    0.0322
     21 C21         -12.392666   -4.503006    4.098073 C.ar     1 SUBUNIT    0.0027
     22 C22         -13.761170   -4.170206    4.166473 C.ar     1 SUBUNIT    0.0103
     23 C23         -14.660971   -5.108803    4.724174 C.ar     1 SUBUNIT    0.0008
     24 C24         -14.209970   -6.355804    5.203075 C.ar     1 SUBUNIT    0.0017
     25 C25         -12.840068   -6.687005    5.136475 C.ar     1 SUBUNIT    0.0211
     26 H26          -9.886595   -6.697295    4.598680 H        1 SUBUNIT    0.2014
     27 H27          -7.414968   -5.865524    3.912451 H        1 SUBUNIT    0.1566
     28 O58          -8.939273    0.024159    1.490862 O.2      1 SUBUNIT    0.0000
@<TRIPOS>BOND
     1    1    2 1
     2    2    3 1
     3    2    6 1
     4    3    4 1
     5    3    7 2
     6    4    5 ar
     7    4    8 ar
     8    5    6 1
     9    5   11 ar
    10    8    9 ar
    11    9   10 ar
    12    9   19 1
    13   10   11 ar
    14   10   14 1
    15   12   13 ar
    16   12   15 ar
    17   13   14 1
    18   13   18 ar
    19   14   27 1
    20   15   16 ar
    21   16   17 ar
    22   17   18 ar
    23   19   20 1
    24   19   26 1
    25   20   21 ar
    26   20   25 ar
    27   21   22 ar
    28   22   23 ar
    29   23   24 ar
    30   24   25 ar
    31    6   28 2
@<SCITEGIC>ATOM_PROPERTY
Formal Charge
SciTegic.value.StringValue
1 0
2 0
3 0
4 0
5 0
6 0
7 0
8 0
9 0
10 0
11 0
12 0
13 0
14 0
15 0
16 0
17 0
18 0
19 0
20 0
21 0
22 0
23 0
24 0
25 0
26 0
27 0
28 0

@<SCITEGIC>ATOM_PROPERTY
pdb_tempFactor
SciTegic.value.DoubleValue
1 0.00
2 0.00
3 0.00
4 0.00
5 0.00
6 0.00
7 0.00
8 0.00
9 0.00
10 0.00
11 0.00
12 0.00
13 0.00
14 0.00
15 0.00
16 0.00
17 0.00
18 0.00
19 0.00
20 0.00
21 0.00
22 0.00
23 0.00
24 0.00
25 0.00
26 0.00
27 0.00
28 0.00

@<SCITEGIC>ATOM_PROPERTY
pdb_occupancy
SciTegic.value.DoubleValue
1 1.00
2 1.00
3 1.00
4 1.00
5 1.00
6 1.00
7 1.00
8 1.00
9 1.00
10 1.00
11 1.00
12 1.00
13 1.00
14 1.00
15 1.00
16 1.00
17 1.00
18 1.00
19 1.00
20 1.00
21 1.00
22 1.00
23 1.00
24 1.00
25 1.00
26 1.00
27 1.00
28 1.00

#	Copyright 2023 drugdesign.org
#	Creation time:	2024-01-11T10:51:51Z

@<SCITEGIC>ROOT_PROPERTY
Ligand:MaximumNumberOfAtoms
SciTegic.value.IntegerValue
100

@<SCITEGIC>ROOT_PROPERTY
Ligand:HydrogenAtomsCountTowardsMaximum
SciTegic.value.BooleanValue
FALSE

@<TRIPOS>MOLECULE
staurosporine
   37    44     0 0 0
SMALL
USER_CHARGES


@<TRIPOS>ATOM
      1 H1           -0.695626    3.958011   -1.146518 H        1 SUBUNIT    0.1500
      2 N2           -0.334826    3.164111   -0.899218 N.am     1 SUBUNIT   -0.3071
      3 C3           -1.099826    2.170311   -0.385518 C.2      1 SUBUNIT    0.2442
      4 C4           -0.119026    1.112213   -0.036118 C.ar     1 SUBUNIT    0.0521
      5 C5            1.165474    1.531413   -0.413618 C.ar     1 SUBUNIT   -0.0080
      6 C6            1.122674    2.921211   -1.035418 C.3      1 SUBUNIT    0.1417
      7 O7           -2.322628    2.233311   -0.275618 O.2      1 SUBUNIT   -0.2719
      8 C8           -0.292926   -0.156187    0.577882 C.ar     1 SUBUNIT    0.0164
      9 C9            0.834374   -0.971188    0.774982 C.ar     1 SUBUNIT    0.0522
     10 C10           2.126373   -0.553687    0.387282 C.ar     1 SUBUNIT    0.0521
     11 C11           2.288972    0.706212   -0.202018 C.ar     1 SUBUNIT    0.0091
     12 C12           3.662172    0.882112   -0.467318 C.ar     1 SUBUNIT    0.0023
     13 C13           4.355773   -0.257787   -0.040818 C.ar     1 SUBUNIT    0.0325
     14 N14           3.404472   -1.253787    0.501882 N.ar     1 SUBUNIT   -0.2102
     15 C15           4.332173    1.978711   -1.043718 C.ar     1 SUBUNIT    0.0103
     16 C16           5.736873    1.917512   -1.179318 C.ar     1 SUBUNIT    0.0008
     17 C17           6.447973    0.781812   -0.742318 C.ar     1 SUBUNIT    0.0017
     18 C18           5.761273   -0.310887   -0.165418 C.ar     1 SUBUNIT    0.0211
     19 N19           0.459574   -2.216089    1.403582 N.ar     1 SUBUNIT   -0.2149
     20 C20          -0.982226   -2.115488    1.570082 C.ar     1 SUBUNIT    0.0322
     21 C21          -1.425026   -0.873588    1.084982 C.ar     1 SUBUNIT    0.0027
     22 C22          -2.793528   -0.540787    1.153382 C.ar     1 SUBUNIT    0.0103
     23 C23          -3.693328   -1.479387    1.711082 C.ar     1 SUBUNIT    0.0008
     24 C24          -3.242328   -2.726389    2.189981 C.ar     1 SUBUNIT    0.0017
     25 C25          -1.872427   -3.057589    2.123381 C.ar     1 SUBUNIT    0.0211
     26 C26           1.304674   -3.374389    1.651082 C.3      1 SUBUNIT    0.2014
     27 O27           2.463772   -3.491189    0.773482 O.3      1 SUBUNIT   -0.3381
     28 C28           3.610972   -2.622689    1.055782 C.3      1 SUBUNIT    0.1566
     29 C29           1.677974   -3.562189    3.157681 C.3      1 SUBUNIT    0.0709
     30 C30           3.212072   -3.726089    3.376781 C.3      1 SUBUNIT    0.0904
     31 C31           3.945972   -2.577089    2.607381 C.3      1 SUBUNIT    0.1821
     32 C32           4.725574   -3.403389    0.292882 C.3      1 SUBUNIT    0.0642
     33 N33           3.619772   -3.806189    4.822886 N.3      1 SUBUNIT   -0.3142
     34 H34           4.577573   -3.858389    4.872286 H        1 SUBUNIT    0.1223
     35 C35           3.056972   -4.987388    5.538986 C.3      1 SUBUNIT    0.1013
     36 O36           3.671072   -1.273687    3.201381 O.3      1 SUBUNIT   -0.3753
     37 C37           4.741973   -0.765688    4.043582 C.3      1 SUBUNIT    0.1951
@<TRIPOS>BOND
     1    1    2 1
     2    2    3 1
     3    2    6 1
     4    3    4 1
     5    3    7 2
     6    4    5 ar
     7    4    8 ar
     8    5    6 1
     9    5   11 ar
    10    8    9 ar
    11    8   21 ar
    12    9   10 ar
    13    9   19 ar
    14   10   11 ar
    15   10   14 ar
    16   11   12 ar
    17   12   13 ar
    18   12   15 ar
    19   13   14 ar
    20   13   18 ar
    21   14   28 1
    22   15   16 ar
    23   16   17 ar
    24   17   18 ar
    25   19   20 ar
    26   19   26 1
    27   20   21 ar
    28   20   25 ar
    29   21   22 ar
    30   22   23 ar
    31   23   24 ar
    32   24   25 ar
    33   26   27 1
    34   26   29 1
    35   27   28 1
    36   28   31 1
    37   28   32 1
    38   29   30 1
    39   30   31 1
    40   30   33 1
    41   31   36 1
    42   33   34 1
    43   33   35 1
    44   36   37 1
@<SCITEGIC>ATOM_PROPERTY
Formal Charge
SciTegic.value.StringValue
1 0
2 0
3 0
4 0
5 0
6 0
7 0
8 0
9 0
10 0
11 0
12 0
13 0
14 0
15 0
16 0
17 0
18 0
19 0
20 0
21 0
22 0
23 0
24 0
25 0
26 0
27 0
28 0
29 0
30 0
31 0
32 0
33 0
34 0
35 0
36 0
37 0

@<SCITEGIC>ATOM_PROPERTY
pdb_tempFactor
SciTegic.value.DoubleValue
1 0.00
2 0.00
3 0.00
4 0.00
5 0.00
6 0.00
7 0.00
8 0.00
9 0.00
10 0.00
11 0.00
12 0.00
13 0.00
14 0.00
15 0.00
16 0.00
17 0.00
18 0.00
19 0.00
20 0.00
21 0.00
22 0.00
23 0.00
24 0.00
25 0.00
26 0.00
27 0.00
28 0.00
29 0.00
30 0.00
31 0.00
32 0.00
33 0.00
34 0.00
35 0.00
36 0.00
37 0.00

@<SCITEGIC>ATOM_PROPERTY
pdb_occupancy
SciTegic.value.DoubleValue
1 1.00
2 1.00
3 1.00
4 1.00
5 1.00
6 1.00
7 1.00
8 1.00
9 1.00
10 1.00
11 1.00
12 1.00
13 1.00
14 1.00
15 1.00
16 1.00
17 1.00
18 1.00
19 1.00
20 1.00
21 1.00
22 1.00
23 1.00
24 1.00
25 1.00
26 1.00
27 1.00
28 1.00
29 1.00
30 1.00
31 1.00
32 1.00
33 1.00
34 1.00
35 1.00
36 1.00
37 1.00

#	Copyright 2023 drugdesign.org
#	Creation time:	2024-01-11T10:51:51Z

@<SCITEGIC>ROOT_PROPERTY
Ligand:MaximumNumberOfAtoms
SciTegic.value.IntegerValue
100

@<SCITEGIC>ROOT_PROPERTY
Ligand:HydrogenAtomsCountTowardsMaximum
SciTegic.value.BooleanValue
FALSE

@<TRIPOS>MOLECULE
staurosporine
   29    31     0 0 0
SMALL
USER_CHARGES


@<TRIPOS>ATOM
      1 H1          -11.707929    0.405253    1.835082 H        1 SUBUNIT    0.1593
      2 N2          -11.302466   -0.465308    2.113873 N.am     1 SUBUNIT   -0.2475
      3 C3          -12.067467   -1.459109    2.627573 C.2      1 SUBUNIT    0.2505
      4 C4          -11.086666   -2.517207    2.976972 C.ar     1 SUBUNIT    0.0517
      5 C5           -9.802163   -2.098007    2.599473 C.ar     1 SUBUNIT    0.0517
      6 C6           -9.844964   -0.708208    1.977672 C.2      1 SUBUNIT    0.2505
      7 O7          -13.290270   -1.396108    2.737473 O.2      1 SUBUNIT   -0.2714
      8 C8          -11.260567   -3.785607    3.590973 C.ar     1 SUBUNIT   -0.0289
      9 C9          -10.133265   -4.600606    3.788073 C.ar     1 SUBUNIT    0.0383
     10 C10          -8.841265   -4.183105    3.400372 C.ar     1 SUBUNIT    0.0383
     11 C11          -8.678665   -2.923208    2.811073 C.ar     1 SUBUNIT   -0.0289
     12 C12          -7.305453   -2.747308    2.545773 C.ar     1 SUBUNIT   -0.0439
     13 C13          -6.611851   -3.887207    2.972273 C.ar     1 SUBUNIT    0.0189
     14 N14          -7.563152   -4.883204    3.514972 N.pl3    1 SUBUNIT   -0.2576
     15 C15          -6.635451   -1.650709    1.969372 C.ar     1 SUBUNIT    0.0016
     16 C16          -5.230752   -1.711909    1.833772 C.ar     1 SUBUNIT    0.0001
     17 C17          -4.519653   -2.847608    2.270773 C.ar     1 SUBUNIT    0.0016
     18 C18          -5.206352   -3.940306    2.847673 C.ar     1 SUBUNIT    0.0201
     19 N19         -10.508066   -5.845505    4.416674 N.pl3    1 SUBUNIT   -0.2576
     20 C20         -11.949867   -5.744904    4.583174 C.ar     1 SUBUNIT    0.0189
     21 C21         -12.392666   -4.503006    4.098073 C.ar     1 SUBUNIT   -0.0439
     22 C22         -13.761170   -4.170206    4.166473 C.ar     1 SUBUNIT    0.0016
     23 C23         -14.660971   -5.108803    4.724174 C.ar     1 SUBUNIT    0.0001
     24 C24         -14.209970   -6.355804    5.203075 C.ar     1 SUBUNIT    0.0016
     25 C25         -12.840068   -6.687005    5.136475 C.ar     1 SUBUNIT    0.0201
     26 H26          -9.886595   -6.697295    4.598680 H        1 SUBUNIT    0.1343
     27 H27          -7.414968   -5.865524    3.912451 H        1 SUBUNIT    0.1343
     28 O58          -8.939273    0.024159    1.490862 O.2      1 SUBUNIT   -0.2714
     29 H64          -6.038550   -7.505918    4.795636 H        1 SUBUNIT    0.0000
@<TRIPOS>BOND
     1    1    2 1
     2    2    3 1
     3    2    6 1
     4    3    4 1
     5    3    7 2
     6    4    5 ar
     7    4    8 ar
     8    5    6 1
     9    5   11 ar
    10    8    9 ar
    11    9   10 ar
    12    9   19 1
    13   10   11 ar
    14   10   14 1
    15   12   13 ar
    16   12   15 ar
    17   13   14 1
    18   13   18 ar
    19   14   27 1
    20   15   16 ar
    21   16   17 ar
    22   17   18 ar
    23   19   20 1
    24   19   26 1
    25   20   21 ar
    26   20   25 ar
    27   21   22 ar
    28   22   23 ar
    29   23   24 ar
    30   24   25 ar
    31    6   28 2
@<SCITEGIC>ATOM_PROPERTY
Formal Charge
SciTegic.value.StringValue
1 0
2 0
3 0
4 0
5 0
6 0
7 0
8 0
9 0
10 0
11 0
12 0
13 0
14 0
15 0
16 0
17 0
18 0
19 0
20 0
21 0
22 0
23 0
24 0
25 0
26 0
27 0
28 0
29 0

@<SCITEGIC>ATOM_PROPERTY
pdb_tempFactor
SciTegic.value.DoubleValue
1 0.00
2 0.00
3 0.00
4 0.00
5 0.00
6 0.00
7 0.00
8 0.00
9 0.00
10 0.00
11 0.00
12 0.00
13 0.00
14 0.00
15 0.00
16 0.00
17 0.00
18 0.00
19 0.00
20 0.00
21 0.00
22 0.00
23 0.00
24 0.00
25 0.00
26 0.00
27 0.00
28 0.00
29 0.00

@<SCITEGIC>ATOM_PROPERTY
pdb_occupancy
SciTegic.value.DoubleValue
1 1.00
2 1.00
3 1.00
4 1.00
5 1.00
6 1.00
7 1.00
8 1.00
9 1.00
10 1.00
11 1.00
12 1.00
13 1.00
14 1.00
15 1.00
16 1.00
17 1.00
18 1.00
19 1.00
20 1.00
21 1.00
22 1.00
23 1.00
24 1.00
25 1.00
26 1.00
27 1.00
28 1.00
29 1.00

#	Copyright 2023 drugdesign.org
#	Creation time:	2024-01-11T10:51:51Z

@<SCITEGIC>ROOT_PROPERTY
Ligand:MaximumNumberOfAtoms
SciTegic.value.IntegerValue
100

@<SCITEGIC>ROOT_PROPERTY
Ligand:HydrogenAtomsCountTowardsMaximum
SciTegic.value.BooleanValue
FALSE

@<TRIPOS>MOLECULE
staurosporine
   37    44     0 0 0
SMALL
USER_CHARGES


@<TRIPOS>ATOM
      1 H1           -0.695626    3.958011   -1.146518 H        1 SUBUNIT    0.1500
      2 N2           -0.334826    3.164111   -0.899218 N.am     1 SUBUNIT   -0.3071
      3 C3           -1.099826    2.170311   -0.385518 C.2      1 SUBUNIT    0.2442
      4 C4           -0.119026    1.112213   -0.036118 C.ar     1 SUBUNIT    0.0521
      5 C5            1.165474    1.531413   -0.413618 C.ar     1 SUBUNIT   -0.0080
      6 C6            1.122674    2.921211   -1.035418 C.3      1 SUBUNIT    0.1417
      7 O7           -2.322628    2.233311   -0.275618 O.2      1 SUBUNIT   -0.2719
      8 C8           -0.292926   -0.156187    0.577882 C.ar     1 SUBUNIT    0.0164
      9 C9            0.834374   -0.971188    0.774982 C.ar     1 SUBUNIT    0.0522
     10 C10           2.126373   -0.553687    0.387282 C.ar     1 SUBUNIT    0.0521
     11 C11           2.288972    0.706212   -0.202018 C.ar     1 SUBUNIT    0.0091
     12 C12           3.662172    0.882112   -0.467318 C.ar     1 SUBUNIT    0.0023
     13 C13           4.355773   -0.257787   -0.040818 C.ar     1 SUBUNIT    0.0325
     14 N14           3.404472   -1.253787    0.501882 N.ar     1 SUBUNIT   -0.2102
     15 C15           4.332173    1.978711   -1.043718 C.ar     1 SUBUNIT    0.0103
     16 C16           5.736873    1.917512   -1.179318 C.ar     1 SUBUNIT    0.0008
     17 C17           6.447973    0.781812   -0.742318 C.ar     1 SUBUNIT    0.0017
     18 C18           5.761273   -0.310887   -0.165418 C.ar     1 SUBUNIT    0.0211
     19 N19           0.459574   -2.216089    1.403582 N.ar     1 SUBUNIT   -0.2149
     20 C20          -0.982226   -2.115488    1.570082 C.ar     1 SUBUNIT    0.0322
     21 C21          -1.425026   -0.873588    1.084982 C.ar     1 SUBUNIT    0.0027
     22 C22          -2.793528   -0.540787    1.153382 C.ar     1 SUBUNIT    0.0103
     23 C23          -3.693328   -1.479387    1.711082 C.ar     1 SUBUNIT    0.0008
     24 C24          -3.242328   -2.726389    2.189981 C.ar     1 SUBUNIT    0.0017
     25 C25          -1.872427   -3.057589    2.123381 C.ar     1 SUBUNIT    0.0211
     26 C26           1.304674   -3.374389    1.651082 C.3      1 SUBUNIT    0.2014
     27 O27           2.463772   -3.491189    0.773482 O.3      1 SUBUNIT   -0.3381
     28 C28           3.610972   -2.622689    1.055782 C.3      1 SUBUNIT    0.1566
     29 C29           1.677974   -3.562189    3.157681 C.3      1 SUBUNIT    0.0709
     30 C30           3.212072   -3.726089    3.376781 C.3      1 SUBUNIT    0.0904
     31 C31           3.945972   -2.577089    2.607381 C.3      1 SUBUNIT    0.1821
     32 C32           4.725574   -3.403389    0.292882 C.3      1 SUBUNIT    0.0642
     33 N33           3.619772   -3.806189    4.822886 N.3      1 SUBUNIT   -0.3142
     34 H34           4.577573   -3.858389    4.872286 H        1 SUBUNIT    0.1223
     35 C35           3.056972   -4.987388    5.538986 C.3      1 SUBUNIT    0.1013
     36 O36           3.671072   -1.273687    3.201381 O.3      1 SUBUNIT   -0.3753
     37 C37           4.741973   -0.765688    4.043582 C.3      1 SUBUNIT    0.1951
@<TRIPOS>BOND
     1    1    2 1
     2    2    3 1
     3    2    6 1
     4    3    4 1
     5    3    7 2
     6    4    5 ar
     7    4    8 ar
     8    5    6 1
     9    5   11 ar
    10    8    9 ar
    11    8   21 ar
    12    9   10 ar
    13    9   19 ar
    14   10   11 ar
    15   10   14 ar
    16   11   12 ar
    17   12   13 ar
    18   12   15 ar
    19   13   14 ar
    20   13   18 ar
    21   14   28 1
    22   15   16 ar
    23   16   17 ar
    24   17   18 ar
    25   19   20 ar
    26   19   26 1
    27   20   21 ar
    28   20   25 ar
    29   21   22 ar
    30   22   23 ar
    31   23   24 ar
    32   24   25 ar
    33   26   27 1
    34   26   29 1
    35   27   28 1
    36   28   31 1
    37   28   32 1
    38   29   30 1
    39   30   31 1
    40   30   33 1
    41   31   36 1
    42   33   34 1
    43   33   35 1
    44   36   37 1
@<SCITEGIC>ATOM_PROPERTY
Formal Charge
SciTegic.value.StringValue
1 0
2 0
3 0
4 0
5 0
6 0
7 0
8 0
9 0
10 0
11 0
12 0
13 0
14 0
15 0
16 0
17 0
18 0
19 0
20 0
21 0
22 0
23 0
24 0
25 0
26 0
27 0
28 0
29 0
30 0
31 0
32 0
33 0
34 0
35 0
36 0
37 0

@<SCITEGIC>ATOM_PROPERTY
pdb_tempFactor
SciTegic.value.DoubleValue
1 0.00
2 0.00
3 0.00
4 0.00
5 0.00
6 0.00
7 0.00
8 0.00
9 0.00
10 0.00
11 0.00
12 0.00
13 0.00
14 0.00
15 0.00
16 0.00
17 0.00
18 0.00
19 0.00
20 0.00
21 0.00
22 0.00
23 0.00
24 0.00
25 0.00
26 0.00
27 0.00
28 0.00
29 0.00
30 0.00
31 0.00
32 0.00
33 0.00
34 0.00
35 0.00
36 0.00
37 0.00

@<SCITEGIC>ATOM_PROPERTY
pdb_occupancy
SciTegic.value.DoubleValue
1 1.00
2 1.00
3 1.00
4 1.00
5 1.00
6 1.00
7 1.00
8 1.00
9 1.00
10 1.00
11 1.00
12 1.00
13 1.00
14 1.00
15 1.00
16 1.00
17 1.00
18 1.00
19 1.00
20 1.00
21 1.00
22 1.00
23 1.00
24 1.00
25 1.00
26 1.00
27 1.00
28 1.00
29 1.00
30 1.00
31 1.00
32 1.00
33 1.00
34 1.00
35 1.00
36 1.00
37 1.00

#	Copyright 2023 drugdesign.org
#	Creation time:	2024-01-11T10:51:51Z

@<SCITEGIC>ROOT_PROPERTY
Ligand:MaximumNumberOfAtoms
SciTegic.value.IntegerValue
100

@<SCITEGIC>ROOT_PROPERTY
Ligand:HydrogenAtomsCountTowardsMaximum
SciTegic.value.BooleanValue
FALSE

@<TRIPOS>MOLECULE
staurosporine
   29    31     0 0 0
SMALL
USER_CHARGES


@<TRIPOS>ATOM
      1 H1          -11.707929    0.405253    1.835082 H        1 SUBUNIT    0.1593
      2 N2          -11.302466   -0.465308    2.113873 N.am     1 SUBUNIT   -0.2475
      3 C3          -12.067467   -1.459109    2.627573 C.2      1 SUBUNIT    0.2505
      4 C4          -11.086666   -2.517207    2.976972 C.ar     1 SUBUNIT    0.0517
      5 C5           -9.802163   -2.098007    2.599473 C.ar     1 SUBUNIT    0.0517
      6 C6           -9.844964   -0.708208    1.977672 C.2      1 SUBUNIT    0.2505
      7 O7          -13.290270   -1.396108    2.737473 O.2      1 SUBUNIT   -0.2714
      8 C8          -11.260567   -3.785607    3.590973 C.ar     1 SUBUNIT   -0.0289
      9 C9          -10.133265   -4.600606    3.788073 C.ar     1 SUBUNIT    0.0383
     10 C10          -8.841265   -4.183105    3.400372 C.ar     1 SUBUNIT    0.0383
     11 C11          -8.678665   -2.923208    2.811073 C.ar     1 SUBUNIT   -0.0289
     12 C12          -7.305453   -2.747308    2.545773 C.ar     1 SUBUNIT   -0.0439
     13 C13          -6.611851   -3.887207    2.972273 C.ar     1 SUBUNIT    0.0189
     14 N14          -7.563152   -4.883204    3.514972 N.pl3    1 SUBUNIT   -0.2576
     15 C15          -6.635451   -1.650709    1.969372 C.ar     1 SUBUNIT    0.0016
     16 C16          -5.230752   -1.711909    1.833772 C.ar     1 SUBUNIT    0.0001
     17 C17          -4.519653   -2.847608    2.270773 C.ar     1 SUBUNIT    0.0016
     18 C18          -5.206352   -3.940306    2.847673 C.ar     1 SUBUNIT    0.0201
     19 N19         -10.508066   -5.845505    4.416674 N.pl3    1 SUBUNIT   -0.2576
     20 C20         -11.949867   -5.744904    4.583174 C.ar     1 SUBUNIT    0.0189
     21 C21         -12.392666   -4.503006    4.098073 C.ar     1 SUBUNIT   -0.0439
     22 C22         -13.761170   -4.170206    4.166473 C.ar     1 SUBUNIT    0.0016
     23 C23         -14.660971   -5.108803    4.724174 C.ar     1 SUBUNIT    0.0001
     24 C24         -14.209970   -6.355804    5.203075 C.ar     1 SUBUNIT    0.0016
     25 C25         -12.840068   -6.687005    5.136475 C.ar     1 SUBUNIT    0.0201
     26 H26          -9.886595   -6.697295    4.598680 H        1 SUBUNIT    0.1343
     27 H27          -7.414968   -5.865524    3.912451 H        1 SUBUNIT    0.1343
     28 O58          -8.939273    0.024159    1.490862 O.2      1 SUBUNIT   -0.2714
     29 H60          -6.038550   -7.505918    4.795636 H        1 SUBUNIT    0.0000
@<TRIPOS>BOND
     1    1    2 1
     2    2    3 1
     3    2    6 1
     4    3    4 1
     5    3    7 2
     6    4    5 ar
     7    4    8 ar
     8    5    6 1
     9    5   11 ar
    10    8    9 ar
    11    9   10 ar
    12    9   19 1
    13   10   11 ar
    14   10   14 1
    15   12   13 ar
    16   12   15 ar
    17   13   14 1
    18   13   18 ar
    19   14   27 1
    20   15   16 ar
    21   16   17 ar
    22   17   18 ar
    23   19   20 1
    24   19   26 1
    25   20   21 ar
    26   20   25 ar
    27   21   22 ar
    28   22   23 ar
    29   23   24 ar
    30   24   25 ar
    31    6   28 2
@<SCITEGIC>ATOM_PROPERTY
Formal Charge
SciTegic.value.StringValue
1 0
2 0
3 0
4 0
5 0
6 0
7 0
8 0
9 0
10 0
11 0
12 0
13 0
14 0
15 0
16 0
17 0
18 0
19 0
20 0
21 0
22 0
23 0
24 0
25 0
26 0
27 0
28 0
29 0

@<SCITEGIC>ATOM_PROPERTY
pdb_tempFactor
SciTegic.value.DoubleValue
1 0.00
2 0.00
3 0.00
4 0.00
5 0.00
6 0.00
7 0.00
8 0.00
9 0.00
10 0.00
11 0.00
12 0.00
13 0.00
14 0.00
15 0.00
16 0.00
17 0.00
18 0.00
19 0.00
20 0.00
21 0.00
22 0.00
23 0.00
24 0.00
25 0.00
26 0.00
27 0.00
28 0.00
29 0.00

@<SCITEGIC>ATOM_PROPERTY
pdb_occupancy
SciTegic.value.DoubleValue
1 1.00
2 1.00
3 1.00
4 1.00
5 1.00
6 1.00
7 1.00
8 1.00
9 1.00
10 1.00
11 1.00
12 1.00
13 1.00
14 1.00
15 1.00
16 1.00
17 1.00
18 1.00
19 1.00
20 1.00
21 1.00
22 1.00
23 1.00
24 1.00
25 1.00
26 1.00
27 1.00
28 1.00
29 1.00

#	Copyright 2023 drugdesign.org
#	Creation time:	2024-01-11T10:51:52Z

@<SCITEGIC>ROOT_PROPERTY
Ligand:MaximumNumberOfAtoms
SciTegic.value.IntegerValue
100

@<SCITEGIC>ROOT_PROPERTY
Ligand:HydrogenAtomsCountTowardsMaximum
SciTegic.value.BooleanValue
FALSE

@<TRIPOS>MOLECULE
staurosporine
   37    44     0 0 0
SMALL
USER_CHARGES


@<TRIPOS>ATOM
      1 H1           -0.695626    3.958011   -1.146518 H        1 SUBUNIT    0.1500
      2 N2           -0.334826    3.164111   -0.899218 N.am     1 SUBUNIT   -0.3071
      3 C3           -1.099826    2.170311   -0.385518 C.2      1 SUBUNIT    0.2442
      4 C4           -0.119026    1.112213   -0.036118 C.ar     1 SUBUNIT    0.0521
      5 C5            1.165474    1.531413   -0.413618 C.ar     1 SUBUNIT   -0.0080
      6 C6            1.122674    2.921211   -1.035418 C.3      1 SUBUNIT    0.1417
      7 O7           -2.322628    2.233311   -0.275618 O.2      1 SUBUNIT   -0.2719
      8 C8           -0.292926   -0.156187    0.577882 C.ar     1 SUBUNIT    0.0164
      9 C9            0.834374   -0.971188    0.774982 C.ar     1 SUBUNIT    0.0522
     10 C10           2.126373   -0.553687    0.387282 C.ar     1 SUBUNIT    0.0521
     11 C11           2.288972    0.706212   -0.202018 C.ar     1 SUBUNIT    0.0091
     12 C12           3.662172    0.882112   -0.467318 C.ar     1 SUBUNIT    0.0023
     13 C13           4.355773   -0.257787   -0.040818 C.ar     1 SUBUNIT    0.0325
     14 N14           3.404472   -1.253787    0.501882 N.ar     1 SUBUNIT   -0.2102
     15 C15           4.332173    1.978711   -1.043718 C.ar     1 SUBUNIT    0.0103
     16 C16           5.736873    1.917512   -1.179318 C.ar     1 SUBUNIT    0.0008
     17 C17           6.447973    0.781812   -0.742318 C.ar     1 SUBUNIT    0.0017
     18 C18           5.761273   -0.310887   -0.165418 C.ar     1 SUBUNIT    0.0211
     19 N19           0.459574   -2.216089    1.403582 N.ar     1 SUBUNIT   -0.2149
     20 C20          -0.982226   -2.115488    1.570082 C.ar     1 SUBUNIT    0.0322
     21 C21          -1.425026   -0.873588    1.084982 C.ar     1 SUBUNIT    0.0027
     22 C22          -2.793528   -0.540787    1.153382 C.ar     1 SUBUNIT    0.0103
     23 C23          -3.693328   -1.479387    1.711082 C.ar     1 SUBUNIT    0.0008
     24 C24          -3.242328   -2.726389    2.189981 C.ar     1 SUBUNIT    0.0017
     25 C25          -1.872427   -3.057589    2.123381 C.ar     1 SUBUNIT    0.0211
     26 C26           1.304674   -3.374389    1.651082 C.3      1 SUBUNIT    0.2014
     27 O27           2.463772   -3.491189    0.773482 O.3      1 SUBUNIT   -0.3381
     28 C28           3.610972   -2.622689    1.055782 C.3      1 SUBUNIT    0.1566
     29 C29           1.677974   -3.562189    3.157681 C.3      1 SUBUNIT    0.0709
     30 C30           3.212072   -3.726089    3.376781 C.3      1 SUBUNIT    0.0904
     31 C31           3.945972   -2.577089    2.607381 C.3      1 SUBUNIT    0.1821
     32 C32           4.725574   -3.403389    0.292882 C.3      1 SUBUNIT    0.0642
     33 N33           3.619772   -3.806189    4.822886 N.3      1 SUBUNIT   -0.3142
     34 H34           4.577573   -3.858389    4.872286 H        1 SUBUNIT    0.1223
     35 C35           3.056972   -4.987388    5.538986 C.3      1 SUBUNIT    0.1013
     36 O36           3.671072   -1.273687    3.201381 O.3      1 SUBUNIT   -0.3753
     37 C37           4.741973   -0.765688    4.043582 C.3      1 SUBUNIT    0.1951
@<TRIPOS>BOND
     1    1    2 1
     2    2    3 1
     3    2    6 1
     4    3    4 1
     5    3    7 2
     6    4    5 ar
     7    4    8 ar
     8    5    6 1
     9    5   11 ar
    10    8    9 ar
    11    8   21 ar
    12    9   10 ar
    13    9   19 ar
    14   10   11 ar
    15   10   14 ar
    16   11   12 ar
    17   12   13 ar
    18   12   15 ar
    19   13   14 ar
    20   13   18 ar
    21   14   28 1
    22   15   16 ar
    23   16   17 ar
    24   17   18 ar
    25   19   20 ar
    26   19   26 1
    27   20   21 ar
    28   20   25 ar
    29   21   22 ar
    30   22   23 ar
    31   23   24 ar
    32   24   25 ar
    33   26   27 1
    34   26   29 1
    35   27   28 1
    36   28   31 1
    37   28   32 1
    38   29   30 1
    39   30   31 1
    40   30   33 1
    41   31   36 1
    42   33   34 1
    43   33   35 1
    44   36   37 1
@<SCITEGIC>ATOM_PROPERTY
Formal Charge
SciTegic.value.StringValue
1 0
2 0
3 0
4 0
5 0
6 0
7 0
8 0
9 0
10 0
11 0
12 0
13 0
14 0
15 0
16 0
17 0
18 0
19 0
20 0
21 0
22 0
23 0
24 0
25 0
26 0
27 0
28 0
29 0
30 0
31 0
32 0
33 0
34 0
35 0
36 0
37 0

@<SCITEGIC>ATOM_PROPERTY
pdb_tempFactor
SciTegic.value.DoubleValue
1 0.00
2 0.00
3 0.00
4 0.00
5 0.00
6 0.00
7 0.00
8 0.00
9 0.00
10 0.00
11 0.00
12 0.00
13 0.00
14 0.00
15 0.00
16 0.00
17 0.00
18 0.00
19 0.00
20 0.00
21 0.00
22 0.00
23 0.00
24 0.00
25 0.00
26 0.00
27 0.00
28 0.00
29 0.00
30 0.00
31 0.00
32 0.00
33 0.00
34 0.00
35 0.00
36 0.00
37 0.00

@<SCITEGIC>ATOM_PROPERTY
pdb_occupancy
SciTegic.value.DoubleValue
1 1.00
2 1.00
3 1.00
4 1.00
5 1.00
6 1.00
7 1.00
8 1.00
9 1.00
10 1.00
11 1.00
12 1.00
13 1.00
14 1.00
15 1.00
16 1.00
17 1.00
18 1.00
19 1.00
20 1.00
21 1.00
22 1.00
23 1.00
24 1.00
25 1.00
26 1.00
27 1.00
28 1.00
29 1.00
30 1.00
31 1.00
32 1.00
33 1.00
34 1.00
35 1.00
36 1.00
37 1.00

#	Copyright 2023 drugdesign.org
#	Creation time:	2024-01-11T10:51:52Z

@<SCITEGIC>ROOT_PROPERTY
Ligand:MaximumNumberOfAtoms
SciTegic.value.IntegerValue
100

@<SCITEGIC>ROOT_PROPERTY
Ligand:HydrogenAtomsCountTowardsMaximum
SciTegic.value.BooleanValue
FALSE

@<TRIPOS>MOLECULE
staurosporine
   29    31     0 0 0
SMALL
USER_CHARGES


@<TRIPOS>ATOM
      1 H1          -11.707929    0.405253    1.835082 H        1 SUBUNIT    0.1593
      2 N2          -11.302466   -0.465308    2.113873 N.am     1 SUBUNIT   -0.2475
      3 C3          -12.067467   -1.459109    2.627573 C.2      1 SUBUNIT    0.2505
      4 C4          -11.086666   -2.517207    2.976972 C.ar     1 SUBUNIT    0.0517
      5 C5           -9.802163   -2.098007    2.599473 C.ar     1 SUBUNIT    0.0517
      6 C6           -9.844964   -0.708208    1.977672 C.2      1 SUBUNIT    0.2505
      7 O7          -13.290270   -1.396108    2.737473 O.2      1 SUBUNIT   -0.2714
      8 C8          -11.260567   -3.785607    3.590973 C.ar     1 SUBUNIT   -0.0289
      9 C9          -10.133265   -4.600606    3.788073 C.ar     1 SUBUNIT    0.0383
     10 C10          -8.841265   -4.183105    3.400372 C.ar     1 SUBUNIT    0.0383
     11 C11          -8.678665   -2.923208    2.811073 C.ar     1 SUBUNIT   -0.0289
     12 C12          -7.305453   -2.747308    2.545773 C.ar     1 SUBUNIT   -0.0439
     13 C13          -6.611851   -3.887207    2.972273 C.ar     1 SUBUNIT    0.0189
     14 N14          -7.563152   -4.883204    3.514972 N.pl3    1 SUBUNIT   -0.2576
     15 C15          -6.635451   -1.650709    1.969372 C.ar     1 SUBUNIT    0.0016
     16 C16          -5.230752   -1.711909    1.833772 C.ar     1 SUBUNIT    0.0001
     17 C17          -4.519653   -2.847608    2.270773 C.ar     1 SUBUNIT    0.0016
     18 C18          -5.206352   -3.940306    2.847673 C.ar     1 SUBUNIT    0.0201
     19 N19         -10.508066   -5.845505    4.416674 N.pl3    1 SUBUNIT   -0.2576
     20 C20         -11.949867   -5.744904    4.583174 C.ar     1 SUBUNIT    0.0189
     21 C21         -12.392666   -4.503006    4.098073 C.ar     1 SUBUNIT   -0.0439
     22 C22         -13.761170   -4.170206    4.166473 C.ar     1 SUBUNIT    0.0016
     23 C23         -14.660971   -5.108803    4.724174 C.ar     1 SUBUNIT    0.0001
     24 C24         -14.209970   -6.355804    5.203075 C.ar     1 SUBUNIT    0.0016
     25 C25         -12.840068   -6.687005    5.136475 C.ar     1 SUBUNIT    0.0201
     26 H26          -9.886595   -6.697295    4.598680 H        1 SUBUNIT    0.1343
     27 H27          -7.414968   -5.865524    3.912451 H        1 SUBUNIT    0.1343
     28 O58          -8.939273    0.024159    1.490862 O.2      1 SUBUNIT   -0.2714
     29 H64          -6.038550   -7.505918    4.795636 H        1 SUBUNIT    0.0000
@<TRIPOS>BOND
     1    1    2 1
     2    2    3 1
     3    2    6 1
     4    3    4 1
     5    3    7 2
     6    4    5 ar
     7    4    8 ar
     8    5    6 1
     9    5   11 ar
    10    8    9 ar
    11    9   10 ar
    12    9   19 1
    13   10   11 ar
    14   10   14 1
    15   12   13 ar
    16   12   15 ar
    17   13   14 1
    18   13   18 ar
    19   14   27 1
    20   15   16 ar
    21   16   17 ar
    22   17   18 ar
    23   19   20 1
    24   19   26 1
    25   20   21 ar
    26   20   25 ar
    27   21   22 ar
    28   22   23 ar
    29   23   24 ar
    30   24   25 ar
    31    6   28 2
@<SCITEGIC>ATOM_PROPERTY
Formal Charge
SciTegic.value.StringValue
1 0
2 0
3 0
4 0
5 0
6 0
7 0
8 0
9 0
10 0
11 0
12 0
13 0
14 0
15 0
16 0
17 0
18 0
19 0
20 0
21 0
22 0
23 0
24 0
25 0
26 0
27 0
28 0
29 0

@<SCITEGIC>ATOM_PROPERTY
pdb_tempFactor
SciTegic.value.DoubleValue
1 0.00
2 0.00
3 0.00
4 0.00
5 0.00
6 0.00
7 0.00
8 0.00
9 0.00
10 0.00
11 0.00
12 0.00
13 0.00
14 0.00
15 0.00
16 0.00
17 0.00
18 0.00
19 0.00
20 0.00
21 0.00
22 0.00
23 0.00
24 0.00
25 0.00
26 0.00
27 0.00
28 0.00
29 0.00

@<SCITEGIC>ATOM_PROPERTY
pdb_occupancy
SciTegic.value.DoubleValue
1 1.00
2 1.00
3 1.00
4 1.00
5 1.00
6 1.00
7 1.00
8 1.00
9 1.00
10 1.00
11 1.00
12 1.00
13 1.00
14 1.00
15 1.00
16 1.00
17 1.00
18 1.00
19 1.00
20 1.00
21 1.00
22 1.00
23 1.00
24 1.00
25 1.00
26 1.00
27 1.00
28 1.00
29 1.00

#	Copyright 2023 drugdesign.org
#	Creation time:	2024-01-11T10:51:52Z

@<SCITEGIC>ROOT_PROPERTY
Ligand:MaximumNumberOfAtoms
SciTegic.value.IntegerValue
100

@<SCITEGIC>ROOT_PROPERTY
Ligand:HydrogenAtomsCountTowardsMaximum
SciTegic.value.BooleanValue
FALSE

@<TRIPOS>MOLECULE
staurosporine
   37    44     0 0 0
SMALL
USER_CHARGES


@<TRIPOS>ATOM
      1 H1           -0.695626    3.958011   -1.146518 H        1 SUBUNIT    0.1500
      2 N2           -0.334826    3.164111   -0.899218 N.am     1 SUBUNIT   -0.3071
      3 C3           -1.099826    2.170311   -0.385518 C.2      1 SUBUNIT    0.2442
      4 C4           -0.119026    1.112213   -0.036118 C.ar     1 SUBUNIT    0.0521
      5 C5            1.165474    1.531413   -0.413618 C.ar     1 SUBUNIT   -0.0080
      6 C6            1.122674    2.921211   -1.035418 C.3      1 SUBUNIT    0.1417
      7 O7           -2.322628    2.233311   -0.275618 O.2      1 SUBUNIT   -0.2719
      8 C8           -0.292926   -0.156187    0.577882 C.ar     1 SUBUNIT    0.0164
      9 C9            0.834374   -0.971188    0.774982 C.ar     1 SUBUNIT    0.0522
     10 C10           2.126373   -0.553687    0.387282 C.ar     1 SUBUNIT    0.0521
     11 C11           2.288972    0.706212   -0.202018 C.ar     1 SUBUNIT    0.0091
     12 C12           3.662172    0.882112   -0.467318 C.ar     1 SUBUNIT    0.0023
     13 C13           4.355773   -0.257787   -0.040818 C.ar     1 SUBUNIT    0.0325
     14 N14           3.404472   -1.253787    0.501882 N.ar     1 SUBUNIT   -0.2102
     15 C15           4.332173    1.978711   -1.043718 C.ar     1 SUBUNIT    0.0103
     16 C16           5.736873    1.917512   -1.179318 C.ar     1 SUBUNIT    0.0008
     17 C17           6.447973    0.781812   -0.742318 C.ar     1 SUBUNIT    0.0017
     18 C18           5.761273   -0.310887   -0.165418 C.ar     1 SUBUNIT    0.0211
     19 N19           0.459574   -2.216089    1.403582 N.ar     1 SUBUNIT   -0.2149
     20 C20          -0.982226   -2.115488    1.570082 C.ar     1 SUBUNIT    0.0322
     21 C21          -1.425026   -0.873588    1.084982 C.ar     1 SUBUNIT    0.0027
     22 C22          -2.793528   -0.540787    1.153382 C.ar     1 SUBUNIT    0.0103
     23 C23          -3.693328   -1.479387    1.711082 C.ar     1 SUBUNIT    0.0008
     24 C24          -3.242328   -2.726389    2.189981 C.ar     1 SUBUNIT    0.0017
     25 C25          -1.872427   -3.057589    2.123381 C.ar     1 SUBUNIT    0.0211
     26 C26           1.304674   -3.374389    1.651082 C.3      1 SUBUNIT    0.2014
     27 O27           2.463772   -3.491189    0.773482 O.3      1 SUBUNIT   -0.3381
     28 C28           3.610972   -2.622689    1.055782 C.3      1 SUBUNIT    0.1566
     29 C29           1.677974   -3.562189    3.157681 C.3      1 SUBUNIT    0.0709
     30 C30           3.212072   -3.726089    3.376781 C.3      1 SUBUNIT    0.0904
     31 C31           3.945972   -2.577089    2.607381 C.3      1 SUBUNIT    0.1821
     32 C32           4.725574   -3.403389    0.292882 C.3      1 SUBUNIT    0.0642
     33 N33           3.619772   -3.806189    4.822886 N.3      1 SUBUNIT   -0.3142
     34 H34           4.577573   -3.858389    4.872286 H        1 SUBUNIT    0.1223
     35 C35           3.056972   -4.987388    5.538986 C.3      1 SUBUNIT    0.1013
     36 O36           3.671072   -1.273687    3.201381 O.3      1 SUBUNIT   -0.3753
     37 C37           4.741973   -0.765688    4.043582 C.3      1 SUBUNIT    0.1951
@<TRIPOS>BOND
     1    1    2 1
     2    2    3 1
     3    2    6 1
     4    3    4 1
     5    3    7 2
     6    4    5 ar
     7    4    8 ar
     8    5    6 1
     9    5   11 ar
    10    8    9 ar
    11    8   21 ar
    12    9   10 ar
    13    9   19 ar
    14   10   11 ar
    15   10   14 ar
    16   11   12 ar
    17   12   13 ar
    18   12   15 ar
    19   13   14 ar
    20   13   18 ar
    21   14   28 1
    22   15   16 ar
    23   16   17 ar
    24   17   18 ar
    25   19   20 ar
    26   19   26 1
    27   20   21 ar
    28   20   25 ar
    29   21   22 ar
    30   22   23 ar
    31   23   24 ar
    32   24   25 ar
    33   26   27 1
    34   26   29 1
    35   27   28 1
    36   28   31 1
    37   28   32 1
    38   29   30 1
    39   30   31 1
    40   30   33 1
    41   31   36 1
    42   33   34 1
    43   33   35 1
    44   36   37 1
@<SCITEGIC>ATOM_PROPERTY
Formal Charge
SciTegic.value.StringValue
1 0
2 0
3 0
4 0
5 0
6 0
7 0
8 0
9 0
10 0
11 0
12 0
13 0
14 0
15 0
16 0
17 0
18 0
19 0
20 0
21 0
22 0
23 0
24 0
25 0
26 0
27 0
28 0
29 0
30 0
31 0
32 0
33 0
34 0
35 0
36 0
37 0

@<SCITEGIC>ATOM_PROPERTY
pdb_tempFactor
SciTegic.value.DoubleValue
1 0.00
2 0.00
3 0.00
4 0.00
5 0.00
6 0.00
7 0.00
8 0.00
9 0.00
10 0.00
11 0.00
12 0.00
13 0.00
14 0.00
15 0.00
16 0.00
17 0.00
18 0.00
19 0.00
20 0.00
21 0.00
22 0.00
23 0.00
24 0.00
25 0.00
26 0.00
27 0.00
28 0.00
29 0.00
30 0.00
31 0.00
32 0.00
33 0.00
34 0.00
35 0.00
36 0.00
37 0.00

@<SCITEGIC>ATOM_PROPERTY
pdb_occupancy
SciTegic.value.DoubleValue
1 1.00
2 1.00
3 1.00
4 1.00
5 1.00
6 1.00
7 1.00
8 1.00
9 1.00
10 1.00
11 1.00
12 1.00
13 1.00
14 1.00
15 1.00
16 1.00
17 1.00
18 1.00
19 1.00
20 1.00
21 1.00
22 1.00
23 1.00
24 1.00
25 1.00
26 1.00
27 1.00
28 1.00
29 1.00
30 1.00
31 1.00
32 1.00
33 1.00
34 1.00
35 1.00
36 1.00
37 1.00

#	Copyright 2023 drugdesign.org
#	Creation time:	2024-01-11T10:51:52Z

@<SCITEGIC>ROOT_PROPERTY
Ligand:MaximumNumberOfAtoms
SciTegic.value.IntegerValue
100

@<SCITEGIC>ROOT_PROPERTY
Ligand:HydrogenAtomsCountTowardsMaximum
SciTegic.value.BooleanValue
FALSE

@<TRIPOS>MOLECULE
staurosporine
   29    31     0 0 0
SMALL
USER_CHARGES


@<TRIPOS>ATOM
      1 H1          -11.707929    0.405253    1.835082 H        1 SUBUNIT    0.1593
      2 N2          -11.302466   -0.465308    2.113873 N.am     1 SUBUNIT   -0.2475
      3 C3          -12.067467   -1.459109    2.627573 C.2      1 SUBUNIT    0.2505
      4 C4          -11.086666   -2.517207    2.976972 C.ar     1 SUBUNIT    0.0517
      5 C5           -9.802163   -2.098007    2.599473 C.ar     1 SUBUNIT    0.0517
      6 C6           -9.844964   -0.708208    1.977672 C.2      1 SUBUNIT    0.2505
      7 O7          -13.290270   -1.396108    2.737473 O.2      1 SUBUNIT   -0.2714
      8 C8          -11.260567   -3.785607    3.590973 C.ar     1 SUBUNIT   -0.0289
      9 C9          -10.133265   -4.600606    3.788073 C.ar     1 SUBUNIT    0.0383
     10 C10          -8.841265   -4.183105    3.400372 C.ar     1 SUBUNIT    0.0383
     11 C11          -8.678665   -2.923208    2.811073 C.ar     1 SUBUNIT   -0.0289
     12 C12          -7.305453   -2.747308    2.545773 C.ar     1 SUBUNIT   -0.0439
     13 C13          -6.611851   -3.887207    2.972273 C.ar     1 SUBUNIT    0.0189
     14 N14          -7.563152   -4.883204    3.514972 N.pl3    1 SUBUNIT   -0.2576
     15 C15          -6.635451   -1.650709    1.969372 C.ar     1 SUBUNIT    0.0016
     16 C16          -5.230752   -1.711909    1.833772 C.ar     1 SUBUNIT    0.0001
     17 C17          -4.519653   -2.847608    2.270773 C.ar     1 SUBUNIT    0.0016
     18 C18          -5.206352   -3.940306    2.847673 C.ar     1 SUBUNIT    0.0201
     19 N19         -10.508066   -5.845505    4.416674 N.pl3    1 SUBUNIT   -0.2576
     20 C20         -11.949867   -5.744904    4.583174 C.ar     1 SUBUNIT    0.0189
     21 C21         -12.392666   -4.503006    4.098073 C.ar     1 SUBUNIT   -0.0439
     22 C22         -13.761170   -4.170206    4.166473 C.ar     1 SUBUNIT    0.0016
     23 C23         -14.660971   -5.108803    4.724174 C.ar     1 SUBUNIT    0.0001
     24 C24         -14.209970   -6.355804    5.203075 C.ar     1 SUBUNIT    0.0016
     25 C25         -12.840068   -6.687005    5.136475 C.ar     1 SUBUNIT    0.0201
     26 H26          -9.886595   -6.697295    4.598680 H        1 SUBUNIT    0.1343
     27 H27          -7.414968   -5.865524    3.912451 H        1 SUBUNIT    0.1343
     28 O58          -8.939273    0.024159    1.490862 O.2      1 SUBUNIT   -0.2714
     29 H60          -6.038550   -7.505918    4.795636 H        1 SUBUNIT    0.0000
@<TRIPOS>BOND
     1    1    2 1
     2    2    3 1
     3    2    6 1
     4    3    4 1
     5    3    7 2
     6    4    5 ar
     7    4    8 ar
     8    5    6 1
     9    5   11 ar
    10    8    9 ar
    11    9   10 ar
    12    9   19 1
    13   10   11 ar
    14   10   14 1
    15   12   13 ar
    16   12   15 ar
    17   13   14 1
    18   13   18 ar
    19   14   27 1
    20   15   16 ar
    21   16   17 ar
    22   17   18 ar
    23   19   20 1
    24   19   26 1
    25   20   21 ar
    26   20   25 ar
    27   21   22 ar
    28   22   23 ar
    29   23   24 ar
    30   24   25 ar
    31    6   28 2
@<SCITEGIC>ATOM_PROPERTY
Formal Charge
SciTegic.value.StringValue
1 0
2 0
3 0
4 0
5 0
6 0
7 0
8 0
9 0
10 0
11 0
12 0
13 0
14 0
15 0
16 0
17 0
18 0
19 0
20 0
21 0
22 0
23 0
24 0
25 0
26 0
27 0
28 0
29 0

@<SCITEGIC>ATOM_PROPERTY
pdb_tempFactor
SciTegic.value.DoubleValue
1 0.00
2 0.00
3 0.00
4 0.00
5 0.00
6 0.00
7 0.00
8 0.00
9 0.00
10 0.00
11 0.00
12 0.00
13 0.00
14 0.00
15 0.00
16 0.00
17 0.00
18 0.00
19 0.00
20 0.00
21 0.00
22 0.00
23 0.00
24 0.00
25 0.00
26 0.00
27 0.00
28 0.00
29 0.00

@<SCITEGIC>ATOM_PROPERTY
pdb_occupancy
SciTegic.value.DoubleValue
1 1.00
2 1.00
3 1.00
4 1.00
5 1.00
6 1.00
7 1.00
8 1.00
9 1.00
10 1.00
11 1.00
12 1.00
13 1.00
14 1.00
15 1.00
16 1.00
17 1.00
18 1.00
19 1.00
20 1.00
21 1.00
22 1.00
23 1.00
24 1.00
25 1.00
26 1.00
27 1.00
28 1.00
29 1.00

#	Copyright 2023 drugdesign.org
#	Creation time:	2024-01-11T10:51:52Z

@<SCITEGIC>ROOT_PROPERTY
Ligand:MaximumNumberOfAtoms
SciTegic.value.IntegerValue
100

@<SCITEGIC>ROOT_PROPERTY
Ligand:HydrogenAtomsCountTowardsMaximum
SciTegic.value.BooleanValue
FALSE

@<TRIPOS>MOLECULE
staurosporine
   37    44     0 0 0
SMALL
USER_CHARGES


@<TRIPOS>ATOM
      1 H1           -0.695626    3.958011   -1.146518 H        1 SUBUNIT    0.1500
      2 N2           -0.334826    3.164111   -0.899218 N.am     1 SUBUNIT   -0.3071
      3 C3           -1.099826    2.170311   -0.385518 C.2      1 SUBUNIT    0.2442
      4 C4           -0.119026    1.112213   -0.036118 C.ar     1 SUBUNIT    0.0521
      5 C5            1.165474    1.531413   -0.413618 C.ar     1 SUBUNIT   -0.0080
      6 C6            1.122674    2.921211   -1.035418 C.3      1 SUBUNIT    0.1417
      7 O7           -2.322628    2.233311   -0.275618 O.2      1 SUBUNIT   -0.2719
      8 C8           -0.292926   -0.156187    0.577882 C.ar     1 SUBUNIT    0.0164
      9 C9            0.834374   -0.971188    0.774982 C.ar     1 SUBUNIT    0.0522
     10 C10           2.126373   -0.553687    0.387282 C.ar     1 SUBUNIT    0.0521
     11 C11           2.288972    0.706212   -0.202018 C.ar     1 SUBUNIT    0.0091
     12 C12           3.662172    0.882112   -0.467318 C.ar     1 SUBUNIT    0.0023
     13 C13           4.355773   -0.257787   -0.040818 C.ar     1 SUBUNIT    0.0325
     14 N14           3.404472   -1.253787    0.501882 N.ar     1 SUBUNIT   -0.2102
     15 C15           4.332173    1.978711   -1.043718 C.ar     1 SUBUNIT    0.0103
     16 C16           5.736873    1.917512   -1.179318 C.ar     1 SUBUNIT    0.0008
     17 C17           6.447973    0.781812   -0.742318 C.ar     1 SUBUNIT    0.0017
     18 C18           5.761273   -0.310887   -0.165418 C.ar     1 SUBUNIT    0.0211
     19 N19           0.459574   -2.216089    1.403582 N.ar     1 SUBUNIT   -0.2149
     20 C20          -0.982226   -2.115488    1.570082 C.ar     1 SUBUNIT    0.0322
     21 C21          -1.425026   -0.873588    1.084982 C.ar     1 SUBUNIT    0.0027
     22 C22          -2.793528   -0.540787    1.153382 C.ar     1 SUBUNIT    0.0103
     23 C23          -3.693328   -1.479387    1.711082 C.ar     1 SUBUNIT    0.0008
     24 C24          -3.242328   -2.726389    2.189981 C.ar     1 SUBUNIT    0.0017
     25 C25          -1.872427   -3.057589    2.123381 C.ar     1 SUBUNIT    0.0211
     26 C26           1.304674   -3.374389    1.651082 C.3      1 SUBUNIT    0.2014
     27 O27           2.463772   -3.491189    0.773482 O.3      1 SUBUNIT   -0.3381
     28 C28           3.610972   -2.622689    1.055782 C.3      1 SUBUNIT    0.1566
     29 C29           1.677974   -3.562189    3.157681 C.3      1 SUBUNIT    0.0709
     30 C30           3.212072   -3.726089    3.376781 C.3      1 SUBUNIT    0.0904
     31 C31           3.945972   -2.577089    2.607381 C.3      1 SUBUNIT    0.1821
     32 C32           4.725574   -3.403389    0.292882 C.3      1 SUBUNIT    0.0642
     33 N33           3.619772   -3.806189    4.822886 N.3      1 SUBUNIT   -0.3142
     34 H34           4.577573   -3.858389    4.872286 H        1 SUBUNIT    0.1223
     35 C35           3.056972   -4.987388    5.538986 C.3      1 SUBUNIT    0.1013
     36 O36           3.671072   -1.273687    3.201381 O.3      1 SUBUNIT   -0.3753
     37 C37           4.741973   -0.765688    4.043582 C.3      1 SUBUNIT    0.1951
@<TRIPOS>BOND
     1    1    2 1
     2    2    3 1
     3    2    6 1
     4    3    4 1
     5    3    7 2
     6    4    5 ar
     7    4    8 ar
     8    5    6 1
     9    5   11 ar
    10    8    9 ar
    11    8   21 ar
    12    9   10 ar
    13    9   19 ar
    14   10   11 ar
    15   10   14 ar
    16   11   12 ar
    17   12   13 ar
    18   12   15 ar
    19   13   14 ar
    20   13   18 ar
    21   14   28 1
    22   15   16 ar
    23   16   17 ar
    24   17   18 ar
    25   19   20 ar
    26   19   26 1
    27   20   21 ar
    28   20   25 ar
    29   21   22 ar
    30   22   23 ar
    31   23   24 ar
    32   24   25 ar
    33   26   27 1
    34   26   29 1
    35   27   28 1
    36   28   31 1
    37   28   32 1
    38   29   30 1
    39   30   31 1
    40   30   33 1
    41   31   36 1
    42   33   34 1
    43   33   35 1
    44   36   37 1
@<SCITEGIC>ATOM_PROPERTY
Formal Charge
SciTegic.value.StringValue
1 0
2 0
3 0
4 0
5 0
6 0
7 0
8 0
9 0
10 0
11 0
12 0
13 0
14 0
15 0
16 0
17 0
18 0
19 0
20 0
21 0
22 0
23 0
24 0
25 0
26 0
27 0
28 0
29 0
30 0
31 0
32 0
33 0
34 0
35 0
36 0
37 0

@<SCITEGIC>ATOM_PROPERTY
pdb_tempFactor
SciTegic.value.DoubleValue
1 0.00
2 0.00
3 0.00
4 0.00
5 0.00
6 0.00
7 0.00
8 0.00
9 0.00
10 0.00
11 0.00
12 0.00
13 0.00
14 0.00
15 0.00
16 0.00
17 0.00
18 0.00
19 0.00
20 0.00
21 0.00
22 0.00
23 0.00
24 0.00
25 0.00
26 0.00
27 0.00
28 0.00
29 0.00
30 0.00
31 0.00
32 0.00
33 0.00
34 0.00
35 0.00
36 0.00
37 0.00

@<SCITEGIC>ATOM_PROPERTY
pdb_occupancy
SciTegic.value.DoubleValue
1 1.00
2 1.00
3 1.00
4 1.00
5 1.00
6 1.00
7 1.00
8 1.00
9 1.00
10 1.00
11 1.00
12 1.00
13 1.00
14 1.00
15 1.00
16 1.00
17 1.00
18 1.00
19 1.00
20 1.00
21 1.00
22 1.00
23 1.00
24 1.00
25 1.00
26 1.00
27 1.00
28 1.00
29 1.00
30 1.00
31 1.00
32 1.00
33 1.00
34 1.00
35 1.00
36 1.00
37 1.00

#	Copyright 2023 drugdesign.org
#	Creation time:	2024-01-11T10:51:52Z

@<SCITEGIC>ROOT_PROPERTY
Ligand:MaximumNumberOfAtoms
SciTegic.value.IntegerValue
100

@<SCITEGIC>ROOT_PROPERTY
Ligand:HydrogenAtomsCountTowardsMaximum
SciTegic.value.BooleanValue
FALSE

@<TRIPOS>MOLECULE
staurosporine
   29    31     0 0 0
SMALL
USER_CHARGES


@<TRIPOS>ATOM
      1 H1          -11.707929    0.405253    1.835082 H        1 SUBUNIT    0.1593
      2 N2          -11.302466   -0.465308    2.113873 N.am     1 SUBUNIT   -0.2475
      3 C3          -12.067467   -1.459109    2.627573 C.2      1 SUBUNIT    0.2505
      4 C4          -11.086666   -2.517207    2.976972 C.ar     1 SUBUNIT    0.0517
      5 C5           -9.802163   -2.098007    2.599473 C.ar     1 SUBUNIT    0.0517
      6 C6           -9.844964   -0.708208    1.977672 C.2      1 SUBUNIT    0.2505
      7 O7          -13.290270   -1.396108    2.737473 O.2      1 SUBUNIT   -0.2714
      8 C8          -11.260567   -3.785607    3.590973 C.ar     1 SUBUNIT   -0.0289
      9 C9          -10.133265   -4.600606    3.788073 C.ar     1 SUBUNIT    0.0383
     10 C10          -8.841265   -4.183105    3.400372 C.ar     1 SUBUNIT    0.0383
     11 C11          -8.678665   -2.923208    2.811073 C.ar     1 SUBUNIT   -0.0289
     12 C12          -7.305453   -2.747308    2.545773 C.ar     1 SUBUNIT   -0.0439
     13 C13          -6.611851   -3.887207    2.972273 C.ar     1 SUBUNIT    0.0189
     14 N14          -7.563152   -4.883204    3.514972 N.pl3    1 SUBUNIT   -0.2576
     15 C15          -6.635451   -1.650709    1.969372 C.ar     1 SUBUNIT    0.0016
     16 C16          -5.230752   -1.711909    1.833772 C.ar     1 SUBUNIT    0.0001
     17 C17          -4.519653   -2.847608    2.270773 C.ar     1 SUBUNIT    0.0016
     18 C18          -5.206352   -3.940306    2.847673 C.ar     1 SUBUNIT    0.0201
     19 N19         -10.508066   -5.845505    4.416674 N.pl3    1 SUBUNIT   -0.2576
     20 C20         -11.949867   -5.744904    4.583174 C.ar     1 SUBUNIT    0.0189
     21 C21         -12.392666   -4.503006    4.098073 C.ar     1 SUBUNIT   -0.0439
     22 C22         -13.761170   -4.170206    4.166473 C.ar     1 SUBUNIT    0.0016
     23 C23         -14.660971   -5.108803    4.724174 C.ar     1 SUBUNIT    0.0001
     24 C24         -14.209970   -6.355804    5.203075 C.ar     1 SUBUNIT    0.0016
     25 C25         -12.840068   -6.687005    5.136475 C.ar     1 SUBUNIT    0.0201
     26 H26          -9.886595   -6.697295    4.598680 H        1 SUBUNIT    0.1343
     27 H27          -7.414968   -5.865524    3.912451 H        1 SUBUNIT    0.1343
     28 O58          -8.939273    0.024159    1.490862 O.2      1 SUBUNIT   -0.2714
     29 H64          -6.038550   -7.505918    4.795636 H        1 SUBUNIT    0.0000
@<TRIPOS>BOND
     1    1    2 1
     2    2    3 1
     3    2    6 1
     4    3    4 1
     5    3    7 2
     6    4    5 ar
     7    4    8 ar
     8    5    6 1
     9    5   11 ar
    10    8    9 ar
    11    9   10 ar
    12    9   19 1
    13   10   11 ar
    14   10   14 1
    15   12   13 ar
    16   12   15 ar
    17   13   14 1
    18   13   18 ar
    19   14   27 1
    20   15   16 ar
    21   16   17 ar
    22   17   18 ar
    23   19   20 1
    24   19   26 1
    25   20   21 ar
    26   20   25 ar
    27   21   22 ar
    28   22   23 ar
    29   23   24 ar
    30   24   25 ar
    31    6   28 2
@<SCITEGIC>ATOM_PROPERTY
Formal Charge
SciTegic.value.StringValue
1 0
2 0
3 0
4 0
5 0
6 0
7 0
8 0
9 0
10 0
11 0
12 0
13 0
14 0
15 0
16 0
17 0
18 0
19 0
20 0
21 0
22 0
23 0
24 0
25 0
26 0
27 0
28 0
29 0

@<SCITEGIC>ATOM_PROPERTY
pdb_tempFactor
SciTegic.value.DoubleValue
1 0.00
2 0.00
3 0.00
4 0.00
5 0.00
6 0.00
7 0.00
8 0.00
9 0.00
10 0.00
11 0.00
12 0.00
13 0.00
14 0.00
15 0.00
16 0.00
17 0.00
18 0.00
19 0.00
20 0.00
21 0.00
22 0.00
23 0.00
24 0.00
25 0.00
26 0.00
27 0.00
28 0.00
29 0.00

@<SCITEGIC>ATOM_PROPERTY
pdb_occupancy
SciTegic.value.DoubleValue
1 1.00
2 1.00
3 1.00
4 1.00
5 1.00
6 1.00
7 1.00
8 1.00
9 1.00
10 1.00
11 1.00
12 1.00
13 1.00
14 1.00
15 1.00
16 1.00
17 1.00
18 1.00
19 1.00
20 1.00
21 1.00
22 1.00
23 1.00
24 1.00
25 1.00
26 1.00
27 1.00
28 1.00
29 1.00

#	Copyright 2023 drugdesign.org
#	Creation time:	2024-01-11T10:51:53Z

@<SCITEGIC>ROOT_PROPERTY
Ligand:MaximumNumberOfAtoms
SciTegic.value.IntegerValue
100

@<SCITEGIC>ROOT_PROPERTY
Ligand:HydrogenAtomsCountTowardsMaximum
SciTegic.value.BooleanValue
FALSE

@<TRIPOS>MOLECULE
staurosporine
   37    44     0 0 0
SMALL
USER_CHARGES


@<TRIPOS>ATOM
      1 H1           -0.695626    3.958011   -1.146518 H        1 SUBUNIT    0.1500
      2 N2           -0.334826    3.164111   -0.899218 N.am     1 SUBUNIT   -0.3071
      3 C3           -1.099826    2.170311   -0.385518 C.2      1 SUBUNIT    0.2442
      4 C4           -0.119026    1.112213   -0.036118 C.ar     1 SUBUNIT    0.0521
      5 C5            1.165474    1.531413   -0.413618 C.ar     1 SUBUNIT   -0.0080
      6 C6            1.122674    2.921211   -1.035418 C.3      1 SUBUNIT    0.1417
      7 O7           -2.322628    2.233311   -0.275618 O.2      1 SUBUNIT   -0.2719
      8 C8           -0.292926   -0.156187    0.577882 C.ar     1 SUBUNIT    0.0164
      9 C9            0.834374   -0.971188    0.774982 C.ar     1 SUBUNIT    0.0522
     10 C10           2.126373   -0.553687    0.387282 C.ar     1 SUBUNIT    0.0521
     11 C11           2.288972    0.706212   -0.202018 C.ar     1 SUBUNIT    0.0091
     12 C12           3.662172    0.882112   -0.467318 C.ar     1 SUBUNIT    0.0023
     13 C13           4.355773   -0.257787   -0.040818 C.ar     1 SUBUNIT    0.0325
     14 N14           3.404472   -1.253787    0.501882 N.ar     1 SUBUNIT   -0.2102
     15 C15           4.332173    1.978711   -1.043718 C.ar     1 SUBUNIT    0.0103
     16 C16           5.736873    1.917512   -1.179318 C.ar     1 SUBUNIT    0.0008
     17 C17           6.447973    0.781812   -0.742318 C.ar     1 SUBUNIT    0.0017
     18 C18           5.761273   -0.310887   -0.165418 C.ar     1 SUBUNIT    0.0211
     19 N19           0.459574   -2.216089    1.403582 N.ar     1 SUBUNIT   -0.2149
     20 C20          -0.982226   -2.115488    1.570082 C.ar     1 SUBUNIT    0.0322
     21 C21          -1.425026   -0.873588    1.084982 C.ar     1 SUBUNIT    0.0027
     22 C22          -2.793528   -0.540787    1.153382 C.ar     1 SUBUNIT    0.0103
     23 C23          -3.693328   -1.479387    1.711082 C.ar     1 SUBUNIT    0.0008
     24 C24          -3.242328   -2.726389    2.189981 C.ar     1 SUBUNIT    0.0017
     25 C25          -1.872427   -3.057589    2.123381 C.ar     1 SUBUNIT    0.0211
     26 C26           1.304674   -3.374389    1.651082 C.3      1 SUBUNIT    0.2014
     27 O27           2.463772   -3.491189    0.773482 O.3      1 SUBUNIT   -0.3381
     28 C28           3.610972   -2.622689    1.055782 C.3      1 SUBUNIT    0.1566
     29 C29           1.677974   -3.562189    3.157681 C.3      1 SUBUNIT    0.0709
     30 C30           3.212072   -3.726089    3.376781 C.3      1 SUBUNIT    0.0904
     31 C31           3.945972   -2.577089    2.607381 C.3      1 SUBUNIT    0.1821
     32 C32           4.725574   -3.403389    0.292882 C.3      1 SUBUNIT    0.0642
     33 N33           3.619772   -3.806189    4.822886 N.3      1 SUBUNIT   -0.3142
     34 H34           4.577573   -3.858389    4.872286 H        1 SUBUNIT    0.1223
     35 C35           3.056972   -4.987388    5.538986 C.3      1 SUBUNIT    0.1013
     36 O36           3.671072   -1.273687    3.201381 O.3      1 SUBUNIT   -0.3753
     37 C37           4.741973   -0.765688    4.043582 C.3      1 SUBUNIT    0.1951
@<TRIPOS>BOND
     1    1    2 1
     2    2    3 1
     3    2    6 1
     4    3    4 1
     5    3    7 2
     6    4    5 ar
     7    4    8 ar
     8    5    6 1
     9    5   11 ar
    10    8    9 ar
    11    8   21 ar
    12    9   10 ar
    13    9   19 ar
    14   10   11 ar
    15   10   14 ar
    16   11   12 ar
    17   12   13 ar
    18   12   15 ar
    19   13   14 ar
    20   13   18 ar
    21   14   28 1
    22   15   16 ar
    23   16   17 ar
    24   17   18 ar
    25   19   20 ar
    26   19   26 1
    27   20   21 ar
    28   20   25 ar
    29   21   22 ar
    30   22   23 ar
    31   23   24 ar
    32   24   25 ar
    33   26   27 1
    34   26   29 1
    35   27   28 1
    36   28   31 1
    37   28   32 1
    38   29   30 1
    39   30   31 1
    40   30   33 1
    41   31   36 1
    42   33   34 1
    43   33   35 1
    44   36   37 1
@<SCITEGIC>ATOM_PROPERTY
Formal Charge
SciTegic.value.StringValue
1 0
2 0
3 0
4 0
5 0
6 0
7 0
8 0
9 0
10 0
11 0
12 0
13 0
14 0
15 0
16 0
17 0
18 0
19 0
20 0
21 0
22 0
23 0
24 0
25 0
26 0
27 0
28 0
29 0
30 0
31 0
32 0
33 0
34 0
35 0
36 0
37 0

@<SCITEGIC>ATOM_PROPERTY
pdb_tempFactor
SciTegic.value.DoubleValue
1 0.00
2 0.00
3 0.00
4 0.00
5 0.00
6 0.00
7 0.00
8 0.00
9 0.00
10 0.00
11 0.00
12 0.00
13 0.00
14 0.00
15 0.00
16 0.00
17 0.00
18 0.00
19 0.00
20 0.00
21 0.00
22 0.00
23 0.00
24 0.00
25 0.00
26 0.00
27 0.00
28 0.00
29 0.00
30 0.00
31 0.00
32 0.00
33 0.00
34 0.00
35 0.00
36 0.00
37 0.00

@<SCITEGIC>ATOM_PROPERTY
pdb_occupancy
SciTegic.value.DoubleValue
1 1.00
2 1.00
3 1.00
4 1.00
5 1.00
6 1.00
7 1.00
8 1.00
9 1.00
10 1.00
11 1.00
12 1.00
13 1.00
14 1.00
15 1.00
16 1.00
17 1.00
18 1.00
19 1.00
20 1.00
21 1.00
22 1.00
23 1.00
24 1.00
25 1.00
26 1.00
27 1.00
28 1.00
29 1.00
30 1.00
31 1.00
32 1.00
33 1.00
34 1.00
35 1.00
36 1.00
37 1.00

#	Copyright 2023 drugdesign.org
#	Creation time:	2024-01-11T10:51:53Z

@<SCITEGIC>ROOT_PROPERTY
Ligand:MaximumNumberOfAtoms
SciTegic.value.IntegerValue
100

@<SCITEGIC>ROOT_PROPERTY
Ligand:HydrogenAtomsCountTowardsMaximum
SciTegic.value.BooleanValue
FALSE

@<TRIPOS>MOLECULE
staurosporine
   29    31     0 0 0
SMALL
USER_CHARGES


@<TRIPOS>ATOM
      1 H1          -11.707929    0.405253    1.835082 H        1 SUBUNIT    0.1593
      2 N2          -11.302466   -0.465308    2.113873 N.am     1 SUBUNIT   -0.2475
      3 C3          -12.067467   -1.459109    2.627573 C.2      1 SUBUNIT    0.2505
      4 C4          -11.086666   -2.517207    2.976972 C.ar     1 SUBUNIT    0.0517
      5 C5           -9.802163   -2.098007    2.599473 C.ar     1 SUBUNIT    0.0517
      6 C6           -9.844964   -0.708208    1.977672 C.2      1 SUBUNIT    0.2505
      7 O7          -13.290270   -1.396108    2.737473 O.2      1 SUBUNIT   -0.2714
      8 C8          -11.260567   -3.785607    3.590973 C.ar     1 SUBUNIT   -0.0289
      9 C9          -10.133265   -4.600606    3.788073 C.ar     1 SUBUNIT    0.0383
     10 C10          -8.841265   -4.183105    3.400372 C.ar     1 SUBUNIT    0.0383
     11 C11          -8.678665   -2.923208    2.811073 C.ar     1 SUBUNIT   -0.0289
     12 C12          -7.010798   -2.924330    2.614359 C.ar     1 SUBUNIT   -0.0439
     13 C13          -6.496794   -4.135034    3.096393 C.ar     1 SUBUNIT    0.0189
     14 N14          -7.563152   -4.883204    3.514972 N.pl3    1 SUBUNIT   -0.2576
     15 C15          -6.170523   -1.929696    2.077410 C.ar     1 SUBUNIT    0.0016
     16 C16          -4.778800   -2.168431    2.039739 C.ar     1 SUBUNIT    0.0001
     17 C17          -4.247659   -3.376990    2.533427 C.ar     1 SUBUNIT    0.0016
     18 C18          -5.103999   -4.365656    3.069688 C.ar     1 SUBUNIT    0.0201
     19 N19         -10.508066   -5.845505    4.416674 N.pl3    1 SUBUNIT   -0.2576
     20 C20         -11.963548   -5.987225    4.716459 C.ar     1 SUBUNIT    0.0189
     21 C21         -12.743260   -4.881723    4.337480 C.ar     1 SUBUNIT   -0.0439
     22 C22         -14.130677   -4.882017    4.589102 C.ar     1 SUBUNIT    0.0016
     23 C23         -14.705990   -6.010393    5.219519 C.ar     1 SUBUNIT    0.0001
     24 C24         -13.917998   -7.118874    5.591128 C.ar     1 SUBUNIT    0.0016
     25 C25         -12.529370   -7.116703    5.341175 C.ar     1 SUBUNIT    0.0201
     26 H26          -9.777621   -6.506872    4.587094 H        1 SUBUNIT    0.1343
     27 H27          -7.534815   -5.820577    3.862146 H        1 SUBUNIT    0.1343
     28 O58          -8.939273    0.024159    1.490862 O.2      1 SUBUNIT   -0.2714
     29 H64          -6.038550   -7.505918    4.795636 H        1 SUBUNIT    0.0000
@<TRIPOS>BOND
     1    1    2 1
     2    2    3 1
     3    2    6 1
     4    3    4 1
     5    3    7 2
     6    4    5 ar
     7    4    8 ar
     8    5    6 1
     9    5   11 ar
    10    8    9 ar
    11    9   10 ar
    12    9   19 1
    13   10   11 ar
    14   10   14 1
    15   12   13 ar
    16   12   15 ar
    17   13   14 1
    18   13   18 ar
    19   14   27 1
    20   15   16 ar
    21   16   17 ar
    22   17   18 ar
    23   19   20 1
    24   19   26 1
    25   20   21 ar
    26   20   25 ar
    27   21   22 ar
    28   22   23 ar
    29   23   24 ar
    30   24   25 ar
    31    6   28 2
@<SCITEGIC>ATOM_PROPERTY
Formal Charge
SciTegic.value.StringValue
1 0
2 0
3 0
4 0
5 0
6 0
7 0
8 0
9 0
10 0
11 0
12 0
13 0
14 0
15 0
16 0
17 0
18 0
19 0
20 0
21 0
22 0
23 0
24 0
25 0
26 0
27 0
28 0
29 0

@<SCITEGIC>ATOM_PROPERTY
pdb_tempFactor
SciTegic.value.DoubleValue
1 0.00
2 0.00
3 0.00
4 0.00
5 0.00
6 0.00
7 0.00
8 0.00
9 0.00
10 0.00
11 0.00
12 0.00
13 0.00
14 0.00
15 0.00
16 0.00
17 0.00
18 0.00
19 0.00
20 0.00
21 0.00
22 0.00
23 0.00
24 0.00
25 0.00
26 0.00
27 0.00
28 0.00
29 0.00

@<SCITEGIC>ATOM_PROPERTY
pdb_occupancy
SciTegic.value.DoubleValue
1 1.00
2 1.00
3 1.00
4 1.00
5 1.00
6 1.00
7 1.00
8 1.00
9 1.00
10 1.00
11 1.00
12 1.00
13 1.00
14 1.00
15 1.00
16 1.00
17 1.00
18 1.00
19 1.00
20 1.00
21 1.00
22 1.00
23 1.00
24 1.00
25 1.00
26 1.00
27 1.00
28 1.00
29 1.00

#	Copyright 2023 drugdesign.org
#	Creation time:	2024-01-11T10:51:53Z

@<SCITEGIC>ROOT_PROPERTY
Ligand:MaximumNumberOfAtoms
SciTegic.value.IntegerValue
100

@<SCITEGIC>ROOT_PROPERTY
Ligand:HydrogenAtomsCountTowardsMaximum
SciTegic.value.BooleanValue
FALSE

@<TRIPOS>MOLECULE
staurosporine
   37    44     0 0 0
SMALL
USER_CHARGES


@<TRIPOS>ATOM
      1 H1           -0.695626    3.958011   -1.146518 H        1 SUBUNIT    0.1500
      2 N2           -0.334826    3.164111   -0.899218 N.am     1 SUBUNIT   -0.3071
      3 C3           -1.099826    2.170311   -0.385518 C.2      1 SUBUNIT    0.2442
      4 C4           -0.119026    1.112213   -0.036118 C.ar     1 SUBUNIT    0.0521
      5 C5            1.165474    1.531413   -0.413618 C.ar     1 SUBUNIT   -0.0080
      6 C6            1.122674    2.921211   -1.035418 C.3      1 SUBUNIT    0.1417
      7 O7           -2.322628    2.233311   -0.275618 O.2      1 SUBUNIT   -0.2719
      8 C8           -0.292926   -0.156187    0.577882 C.ar     1 SUBUNIT    0.0164
      9 C9            0.834374   -0.971188    0.774982 C.ar     1 SUBUNIT    0.0522
     10 C10           2.126373   -0.553687    0.387282 C.ar     1 SUBUNIT    0.0521
     11 C11           2.288972    0.706212   -0.202018 C.ar     1 SUBUNIT    0.0091
     12 C12           3.662172    0.882112   -0.467318 C.ar     1 SUBUNIT    0.0023
     13 C13           4.355773   -0.257787   -0.040818 C.ar     1 SUBUNIT    0.0325
     14 N14           3.404472   -1.253787    0.501882 N.ar     1 SUBUNIT   -0.2102
     15 C15           4.332173    1.978711   -1.043718 C.ar     1 SUBUNIT    0.0103
     16 C16           5.736873    1.917512   -1.179318 C.ar     1 SUBUNIT    0.0008
     17 C17           6.447973    0.781812   -0.742318 C.ar     1 SUBUNIT    0.0017
     18 C18           5.761273   -0.310887   -0.165418 C.ar     1 SUBUNIT    0.0211
     19 N19           0.459574   -2.216089    1.403582 N.ar     1 SUBUNIT   -0.2149
     20 C20          -0.982226   -2.115488    1.570082 C.ar     1 SUBUNIT    0.0322
     21 C21          -1.425026   -0.873588    1.084982 C.ar     1 SUBUNIT    0.0027
     22 C22          -2.793528   -0.540787    1.153382 C.ar     1 SUBUNIT    0.0103
     23 C23          -3.693328   -1.479387    1.711082 C.ar     1 SUBUNIT    0.0008
     24 C24          -3.242328   -2.726389    2.189981 C.ar     1 SUBUNIT    0.0017
     25 C25          -1.872427   -3.057589    2.123381 C.ar     1 SUBUNIT    0.0211
     26 C26           1.304674   -3.374389    1.651082 C.3      1 SUBUNIT    0.2014
     27 O27           2.463772   -3.491189    0.773482 O.3      1 SUBUNIT   -0.3381
     28 C28           3.610972   -2.622689    1.055782 C.3      1 SUBUNIT    0.1566
     29 C29           1.677974   -3.562189    3.157681 C.3      1 SUBUNIT    0.0709
     30 C30           3.212072   -3.726089    3.376781 C.3      1 SUBUNIT    0.0904
     31 C31           3.945972   -2.577089    2.607381 C.3      1 SUBUNIT    0.1821
     32 C32           4.725574   -3.403389    0.292882 C.3      1 SUBUNIT    0.0642
     33 N33           3.619772   -3.806189    4.822886 N.3      1 SUBUNIT   -0.3142
     34 H34           4.577573   -3.858389    4.872286 H        1 SUBUNIT    0.1223
     35 C35           3.056972   -4.987388    5.538986 C.3      1 SUBUNIT    0.1013
     36 O36           3.671072   -1.273687    3.201381 O.3      1 SUBUNIT   -0.3753
     37 C37           4.741973   -0.765688    4.043582 C.3      1 SUBUNIT    0.1951
@<TRIPOS>BOND
     1    1    2 1
     2    2    3 1
     3    2    6 1
     4    3    4 1
     5    3    7 2
     6    4    5 ar
     7    4    8 ar
     8    5    6 1
     9    5   11 ar
    10    8    9 ar
    11    8   21 ar
    12    9   10 ar
    13    9   19 ar
    14   10   11 ar
    15   10   14 ar
    16   11   12 ar
    17   12   13 ar
    18   12   15 ar
    19   13   14 ar
    20   13   18 ar
    21   14   28 1
    22   15   16 ar
    23   16   17 ar
    24   17   18 ar
    25   19   20 ar
    26   19   26 1
    27   20   21 ar
    28   20   25 ar
    29   21   22 ar
    30   22   23 ar
    31   23   24 ar
    32   24   25 ar
    33   26   27 1
    34   26   29 1
    35   27   28 1
    36   28   31 1
    37   28   32 1
    38   29   30 1
    39   30   31 1
    40   30   33 1
    41   31   36 1
    42   33   34 1
    43   33   35 1
    44   36   37 1
@<SCITEGIC>ATOM_PROPERTY
Formal Charge
SciTegic.value.StringValue
1 0
2 0
3 0
4 0
5 0
6 0
7 0
8 0
9 0
10 0
11 0
12 0
13 0
14 0
15 0
16 0
17 0
18 0
19 0
20 0
21 0
22 0
23 0
24 0
25 0
26 0
27 0
28 0
29 0
30 0
31 0
32 0
33 0
34 0
35 0
36 0
37 0

@<SCITEGIC>ATOM_PROPERTY
pdb_tempFactor
SciTegic.value.DoubleValue
1 0.00
2 0.00
3 0.00
4 0.00
5 0.00
6 0.00
7 0.00
8 0.00
9 0.00
10 0.00
11 0.00
12 0.00
13 0.00
14 0.00
15 0.00
16 0.00
17 0.00
18 0.00
19 0.00
20 0.00
21 0.00
22 0.00
23 0.00
24 0.00
25 0.00
26 0.00
27 0.00
28 0.00
29 0.00
30 0.00
31 0.00
32 0.00
33 0.00
34 0.00
35 0.00
36 0.00
37 0.00

@<SCITEGIC>ATOM_PROPERTY
pdb_occupancy
SciTegic.value.DoubleValue
1 1.00
2 1.00
3 1.00
4 1.00
5 1.00
6 1.00
7 1.00
8 1.00
9 1.00
10 1.00
11 1.00
12 1.00
13 1.00
14 1.00
15 1.00
16 1.00
17 1.00
18 1.00
19 1.00
20 1.00
21 1.00
22 1.00
23 1.00
24 1.00
25 1.00
26 1.00
27 1.00
28 1.00
29 1.00
30 1.00
31 1.00
32 1.00
33 1.00
34 1.00
35 1.00
36 1.00
37 1.00

#	Copyright 2023 drugdesign.org
#	Creation time:	2024-01-11T10:51:53Z

@<SCITEGIC>ROOT_PROPERTY
Ligand:MaximumNumberOfAtoms
SciTegic.value.IntegerValue
100

@<SCITEGIC>ROOT_PROPERTY
Ligand:HydrogenAtomsCountTowardsMaximum
SciTegic.value.BooleanValue
FALSE

@<TRIPOS>MOLECULE
staurosporine
   29    31     0 0 0
SMALL
USER_CHARGES


@<TRIPOS>ATOM
      1 H1          -11.707929    0.405253    1.835082 H        1 SUBUNIT    0.1593
      2 N2          -11.302466   -0.465308    2.113873 N.am     1 SUBUNIT   -0.2475
      3 C3          -12.067467   -1.459109    2.627573 C.2      1 SUBUNIT    0.2505
      4 C4          -11.086666   -2.517207    2.976972 C.ar     1 SUBUNIT    0.0517
      5 C5           -9.802163   -2.098007    2.599473 C.ar     1 SUBUNIT    0.0517
      6 C6           -9.844964   -0.708208    1.977672 C.2      1 SUBUNIT    0.2505
      7 O7          -13.290270   -1.396108    2.737473 O.2      1 SUBUNIT   -0.2714
      8 C8          -11.260567   -3.785607    3.590973 C.ar     1 SUBUNIT    0.0360
      9 C9          -10.133265   -4.600606    3.788073 C.ar     1 SUBUNIT    0.0383
     10 C10          -8.841265   -4.183105    3.400372 C.ar     1 SUBUNIT    0.0383
     11 C11          -8.678665   -2.923208    2.811073 C.ar     1 SUBUNIT    0.0360
     12 C12          -6.968584   -2.810953    2.962114 C.ar     1 SUBUNIT   -0.0439
     13 C13          -6.490209   -4.112974    3.157724 C.ar     1 SUBUNIT    0.0189
     14 N14          -7.563152   -4.883204    3.514972 N.pl3    1 SUBUNIT   -0.2576
     15 C15          -6.115453   -1.766626    2.555640 C.ar     1 SUBUNIT    0.0016
     16 C16          -4.746674   -2.051467    2.354094 C.ar     1 SUBUNIT    0.0001
     17 C17          -4.250236   -3.354380    2.560046 C.ar     1 SUBUNIT    0.0016
     18 C18          -5.119068   -4.392052    2.968364 C.ar     1 SUBUNIT    0.0201
     19 N19         -10.508066   -5.845505    4.416674 N.pl3    1 SUBUNIT   -0.2576
     20 C20         -11.877581   -5.860508    5.006766 C.ar     1 SUBUNIT    0.0189
     21 C21         -12.527324   -4.614952    5.018262 C.ar     1 SUBUNIT   -0.0439
     22 C22         -13.817775   -4.501556    5.575141 C.ar     1 SUBUNIT    0.0016
     23 C23         -14.430882   -5.659479    6.108949 C.ar     1 SUBUNIT    0.0001
     24 C24         -13.775100   -6.907383    6.087982 C.ar     1 SUBUNIT    0.0016
     25 C25         -12.482836   -7.019448    5.532762 C.ar     1 SUBUNIT    0.0201
     26 H26          -9.836574   -6.586194    4.394855 H        1 SUBUNIT    0.1343
     27 H27          -7.539093   -5.835332    3.819722 H        1 SUBUNIT    0.1343
     28 O58          -8.939273    0.024159    1.490862 O.2      1 SUBUNIT   -0.2714
     29 H62          -6.038550   -7.505918    4.795636 H        1 SUBUNIT    0.0000
@<TRIPOS>BOND
     1    1    2 1
     2    2    3 1
     3    2    6 1
     4    3    4 1
     5    3    7 2
     6    4    5 ar
     7    4    8 ar
     8    5    6 1
     9    5   11 ar
    10    8    9 ar
    11    9   10 ar
    12    9   19 1
    13   10   11 ar
    14   10   14 1
    15   12   13 ar
    16   12   15 ar
    17   13   14 1
    18   13   18 ar
    19   14   27 1
    20   15   16 ar
    21   16   17 ar
    22   17   18 ar
    23   19   20 1
    24   19   26 1
    25   20   21 ar
    26   20   25 ar
    27   21   22 ar
    28   22   23 ar
    29   23   24 ar
    30   24   25 ar
    31    6   28 2
@<SCITEGIC>ATOM_PROPERTY
Formal Charge
SciTegic.value.StringValue
1 0
2 0
3 0
4 0
5 0
6 0
7 0
8 0
9 0
10 0
11 0
12 0
13 0
14 0
15 0
16 0
17 0
18 0
19 0
20 0
21 0
22 0
23 0
24 0
25 0
26 0
27 0
28 0
29 0

@<SCITEGIC>ATOM_PROPERTY
pdb_tempFactor
SciTegic.value.DoubleValue
1 0.00
2 0.00
3 0.00
4 0.00
5 0.00
6 0.00
7 0.00
8 0.00
9 0.00
10 0.00
11 0.00
12 0.00
13 0.00
14 0.00
15 0.00
16 0.00
17 0.00
18 0.00
19 0.00
20 0.00
21 0.00
22 0.00
23 0.00
24 0.00
25 0.00
26 0.00
27 0.00
28 0.00
29 0.00

@<SCITEGIC>ATOM_PROPERTY
pdb_occupancy
SciTegic.value.DoubleValue
1 1.00
2 1.00
3 1.00
4 1.00
5 1.00
6 1.00
7 1.00
8 1.00
9 1.00
10 1.00
11 1.00
12 1.00
13 1.00
14 1.00
15 1.00
16 1.00
17 1.00
18 1.00
19 1.00
20 1.00
21 1.00
22 1.00
23 1.00
24 1.00
25 1.00
26 1.00
27 1.00
28 1.00
29 1.00

#	Copyright 2023 drugdesign.org
#	Creation time:	2024-01-11T10:51:54Z

@<SCITEGIC>ROOT_PROPERTY
Ligand:MaximumNumberOfAtoms
SciTegic.value.IntegerValue
100

@<SCITEGIC>ROOT_PROPERTY
Ligand:HydrogenAtomsCountTowardsMaximum
SciTegic.value.BooleanValue
FALSE

@<TRIPOS>MOLECULE
staurosporine
   37    44     0 0 0
SMALL
USER_CHARGES


@<TRIPOS>ATOM
      1 H1           -0.695626    3.958011   -1.146518 H        1 SUBUNIT    0.1500
      2 N2           -0.334826    3.164111   -0.899218 N.am     1 SUBUNIT   -0.3071
      3 C3           -1.099826    2.170311   -0.385518 C.2      1 SUBUNIT    0.2442
      4 C4           -0.119026    1.112213   -0.036118 C.ar     1 SUBUNIT    0.0521
      5 C5            1.165474    1.531413   -0.413618 C.ar     1 SUBUNIT   -0.0080
      6 C6            1.122674    2.921211   -1.035418 C.3      1 SUBUNIT    0.1417
      7 O7           -2.322628    2.233311   -0.275618 O.2      1 SUBUNIT   -0.2719
      8 C8           -0.292926   -0.156187    0.577882 C.ar     1 SUBUNIT    0.0164
      9 C9            0.834374   -0.971188    0.774982 C.ar     1 SUBUNIT    0.0522
     10 C10           2.126373   -0.553687    0.387282 C.ar     1 SUBUNIT    0.0521
     11 C11           2.288972    0.706212   -0.202018 C.ar     1 SUBUNIT    0.0091
     12 C12           3.662172    0.882112   -0.467318 C.ar     1 SUBUNIT    0.0023
     13 C13           4.355773   -0.257787   -0.040818 C.ar     1 SUBUNIT    0.0325
     14 N14           3.404472   -1.253787    0.501882 N.ar     1 SUBUNIT   -0.2102
     15 C15           4.332173    1.978711   -1.043718 C.ar     1 SUBUNIT    0.0103
     16 C16           5.736873    1.917512   -1.179318 C.ar     1 SUBUNIT    0.0008
     17 C17           6.447973    0.781812   -0.742318 C.ar     1 SUBUNIT    0.0017
     18 C18           5.761273   -0.310887   -0.165418 C.ar     1 SUBUNIT    0.0211
     19 N19           0.459574   -2.216089    1.403582 N.ar     1 SUBUNIT   -0.2149
     20 C20          -0.982226   -2.115488    1.570082 C.ar     1 SUBUNIT    0.0322
     21 C21          -1.425026   -0.873588    1.084982 C.ar     1 SUBUNIT    0.0027
     22 C22          -2.793528   -0.540787    1.153382 C.ar     1 SUBUNIT    0.0103
     23 C23          -3.693328   -1.479387    1.711082 C.ar     1 SUBUNIT    0.0008
     24 C24          -3.242328   -2.726389    2.189981 C.ar     1 SUBUNIT    0.0017
     25 C25          -1.872427   -3.057589    2.123381 C.ar     1 SUBUNIT    0.0211
     26 C26           1.304674   -3.374389    1.651082 C.3      1 SUBUNIT    0.2014
     27 O27           2.463772   -3.491189    0.773482 O.3      1 SUBUNIT   -0.3381
     28 C28           3.610972   -2.622689    1.055782 C.3      1 SUBUNIT    0.1566
     29 C29           1.677974   -3.562189    3.157681 C.3      1 SUBUNIT    0.0709
     30 C30           3.212072   -3.726089    3.376781 C.3      1 SUBUNIT    0.0904
     31 C31           3.945972   -2.577089    2.607381 C.3      1 SUBUNIT    0.1821
     32 C32           4.725574   -3.403389    0.292882 C.3      1 SUBUNIT    0.0642
     33 N33           3.619772   -3.806189    4.822886 N.3      1 SUBUNIT   -0.3142
     34 H34           4.577573   -3.858389    4.872286 H        1 SUBUNIT    0.1223
     35 C35           3.056972   -4.987388    5.538986 C.3      1 SUBUNIT    0.1013
     36 O36           3.671072   -1.273687    3.201381 O.3      1 SUBUNIT   -0.3753
     37 C37           4.741973   -0.765688    4.043582 C.3      1 SUBUNIT    0.1951
@<TRIPOS>BOND
     1    1    2 1
     2    2    3 1
     3    2    6 1
     4    3    4 1
     5    3    7 2
     6    4    5 ar
     7    4    8 ar
     8    5    6 1
     9    5   11 ar
    10    8    9 ar
    11    8   21 ar
    12    9   10 ar
    13    9   19 ar
    14   10   11 ar
    15   10   14 ar
    16   11   12 ar
    17   12   13 ar
    18   12   15 ar
    19   13   14 ar
    20   13   18 ar
    21   14   28 1
    22   15   16 ar
    23   16   17 ar
    24   17   18 ar
    25   19   20 ar
    26   19   26 1
    27   20   21 ar
    28   20   25 ar
    29   21   22 ar
    30   22   23 ar
    31   23   24 ar
    32   24   25 ar
    33   26   27 1
    34   26   29 1
    35   27   28 1
    36   28   31 1
    37   28   32 1
    38   29   30 1
    39   30   31 1
    40   30   33 1
    41   31   36 1
    42   33   34 1
    43   33   35 1
    44   36   37 1
@<SCITEGIC>ATOM_PROPERTY
Formal Charge
SciTegic.value.StringValue
1 0
2 0
3 0
4 0
5 0
6 0
7 0
8 0
9 0
10 0
11 0
12 0
13 0
14 0
15 0
16 0
17 0
18 0
19 0
20 0
21 0
22 0
23 0
24 0
25 0
26 0
27 0
28 0
29 0
30 0
31 0
32 0
33 0
34 0
35 0
36 0
37 0

@<SCITEGIC>ATOM_PROPERTY
pdb_tempFactor
SciTegic.value.DoubleValue
1 0.00
2 0.00
3 0.00
4 0.00
5 0.00
6 0.00
7 0.00
8 0.00
9 0.00
10 0.00
11 0.00
12 0.00
13 0.00
14 0.00
15 0.00
16 0.00
17 0.00
18 0.00
19 0.00
20 0.00
21 0.00
22 0.00
23 0.00
24 0.00
25 0.00
26 0.00
27 0.00
28 0.00
29 0.00
30 0.00
31 0.00
32 0.00
33 0.00
34 0.00
35 0.00
36 0.00
37 0.00

@<SCITEGIC>ATOM_PROPERTY
pdb_occupancy
SciTegic.value.DoubleValue
1 1.00
2 1.00
3 1.00
4 1.00
5 1.00
6 1.00
7 1.00
8 1.00
9 1.00
10 1.00
11 1.00
12 1.00
13 1.00
14 1.00
15 1.00
16 1.00
17 1.00
18 1.00
19 1.00
20 1.00
21 1.00
22 1.00
23 1.00
24 1.00
25 1.00
26 1.00
27 1.00
28 1.00
29 1.00
30 1.00
31 1.00
32 1.00
33 1.00
34 1.00
35 1.00
36 1.00
37 1.00

#	Copyright 2023 drugdesign.org
#	Creation time:	2024-01-11T10:51:54Z

@<SCITEGIC>ROOT_PROPERTY
Ligand:MaximumNumberOfAtoms
SciTegic.value.IntegerValue
100

@<SCITEGIC>ROOT_PROPERTY
Ligand:HydrogenAtomsCountTowardsMaximum
SciTegic.value.BooleanValue
FALSE

@<TRIPOS>MOLECULE
staurosporine
   29    31     0 0 0
SMALL
USER_CHARGES


@<TRIPOS>ATOM
      1 H1          -11.707929    0.405253    1.835082 H        1 SUBUNIT    0.1593
      2 N2          -11.302466   -0.465308    2.113873 N.am     1 SUBUNIT   -0.2475
      3 C3          -12.067467   -1.459109    2.627573 C.2      1 SUBUNIT    0.2505
      4 C4          -11.086666   -2.517207    2.976972 C.ar     1 SUBUNIT    0.0517
      5 C5           -9.802163   -2.098007    2.599473 C.ar     1 SUBUNIT    0.0517
      6 C6           -9.844964   -0.708208    1.977672 C.2      1 SUBUNIT    0.2505
      7 O7          -13.290270   -1.396108    2.737473 O.2      1 SUBUNIT   -0.2714
      8 C8          -11.260567   -3.785607    3.590973 C.ar     1 SUBUNIT    0.0360
      9 C9          -10.133265   -4.600606    3.788073 C.ar     1 SUBUNIT    0.0383
     10 C10          -8.841265   -4.183105    3.400372 C.ar     1 SUBUNIT    0.0383
     11 C11          -8.678665   -2.923208    2.811073 C.ar     1 SUBUNIT    0.0360
     12 C12          -6.600629   -2.789639    2.915742 C.ar     1 SUBUNIT   -0.0439
     13 C13          -6.500549   -4.160767    3.184733 C.ar     1 SUBUNIT    0.0189
     14 N14          -7.563152   -4.883204    3.514972 N.pl3    1 SUBUNIT   -0.2576
     15 C15          -5.462911   -2.011172    2.627193 C.ar     1 SUBUNIT    0.0016
     16 C16          -4.197589   -2.639065    2.622279 C.ar     1 SUBUNIT    0.0001
     17 C17          -4.081831   -4.015165    2.904061 C.ar     1 SUBUNIT    0.0016
     18 C18          -5.233139   -4.783172    3.192181 C.ar     1 SUBUNIT    0.0201
     19 N19         -10.508066   -5.845505    4.416674 N.pl3    1 SUBUNIT   -0.2576
     20 C20         -11.878920   -6.092606    5.133314 C.ar     1 SUBUNIT    0.0189
     21 C21         -12.603735   -4.889860    5.175221 C.ar     1 SUBUNIT   -0.0439
     22 C22         -13.879083   -4.859479    5.775891 C.ar     1 SUBUNIT    0.0016
     23 C23         -14.400880   -6.055783    6.321977 C.ar     1 SUBUNIT    0.0001
     24 C24         -13.670220   -7.260451    6.270387 C.ar     1 SUBUNIT    0.0016
     25 C25         -12.393085   -7.289402    5.671324 C.ar     1 SUBUNIT    0.0201
     26 H26          -9.838076   -6.586769    4.376181 H        1 SUBUNIT    0.1343
     27 H27          -7.613546   -5.840162    3.800791 H        1 SUBUNIT    0.1343
     28 O58          -8.939273    0.024159    1.490862 O.2      1 SUBUNIT   -0.2714
     29 H62          -6.038550   -7.505918    4.795636 H        1 SUBUNIT    0.0000
@<TRIPOS>BOND
     1    1    2 1
     2    2    3 1
     3    2    6 1
     4    3    4 1
     5    3    7 2
     6    4    5 ar
     7    4    8 ar
     8    5    6 1
     9    5   11 ar
    10    8    9 ar
    11    9   10 ar
    12    9   19 1
    13   10   11 ar
    14   10   14 1
    15   12   13 ar
    16   12   15 ar
    17   13   14 1
    18   13   18 ar
    19   14   27 1
    20   15   16 ar
    21   16   17 ar
    22   17   18 ar
    23   19   20 1
    24   19   26 1
    25   20   21 ar
    26   20   25 ar
    27   21   22 ar
    28   22   23 ar
    29   23   24 ar
    30   24   25 ar
    31    6   28 2
@<SCITEGIC>ATOM_PROPERTY
Formal Charge
SciTegic.value.StringValue
1 0
2 0
3 0
4 0
5 0
6 0
7 0
8 0
9 0
10 0
11 0
12 0
13 0
14 0
15 0
16 0
17 0
18 0
19 0
20 0
21 0
22 0
23 0
24 0
25 0
26 0
27 0
28 0
29 0

@<SCITEGIC>ATOM_PROPERTY
pdb_tempFactor
SciTegic.value.DoubleValue
1 0.00
2 0.00
3 0.00
4 0.00
5 0.00
6 0.00
7 0.00
8 0.00
9 0.00
10 0.00
11 0.00
12 0.00
13 0.00
14 0.00
15 0.00
16 0.00
17 0.00
18 0.00
19 0.00
20 0.00
21 0.00
22 0.00
23 0.00
24 0.00
25 0.00
26 0.00
27 0.00
28 0.00
29 0.00

@<SCITEGIC>ATOM_PROPERTY
pdb_occupancy
SciTegic.value.DoubleValue
1 1.00
2 1.00
3 1.00
4 1.00
5 1.00
6 1.00
7 1.00
8 1.00
9 1.00
10 1.00
11 1.00
12 1.00
13 1.00
14 1.00
15 1.00
16 1.00
17 1.00
18 1.00
19 1.00
20 1.00
21 1.00
22 1.00
23 1.00
24 1.00
25 1.00
26 1.00
27 1.00
28 1.00
29 1.00

#	Copyright 2023 drugdesign.org
#	Creation time:	2024-01-11T10:51:54Z

@<SCITEGIC>ROOT_PROPERTY
Ligand:MaximumNumberOfAtoms
SciTegic.value.IntegerValue
100

@<SCITEGIC>ROOT_PROPERTY
Ligand:HydrogenAtomsCountTowardsMaximum
SciTegic.value.BooleanValue
FALSE

@<TRIPOS>MOLECULE
staurosporine
   37    44     0 0 0
SMALL
USER_CHARGES


@<TRIPOS>ATOM
      1 H1           -0.695626    3.958011   -1.146518 H        1 SUBUNIT    0.1500
      2 N2           -0.334826    3.164111   -0.899218 N.am     1 SUBUNIT   -0.3071
      3 C3           -1.099826    2.170311   -0.385518 C.2      1 SUBUNIT    0.2442
      4 C4           -0.119026    1.112213   -0.036118 C.ar     1 SUBUNIT    0.0521
      5 C5            1.165474    1.531413   -0.413618 C.ar     1 SUBUNIT   -0.0080
      6 C6            1.122674    2.921211   -1.035418 C.3      1 SUBUNIT    0.1417
      7 O7           -2.322628    2.233311   -0.275618 O.2      1 SUBUNIT   -0.2719
      8 C8           -0.292926   -0.156187    0.577882 C.ar     1 SUBUNIT    0.0164
      9 C9            0.834374   -0.971188    0.774982 C.ar     1 SUBUNIT    0.0522
     10 C10           2.126373   -0.553687    0.387282 C.ar     1 SUBUNIT    0.0521
     11 C11           2.288972    0.706212   -0.202018 C.ar     1 SUBUNIT    0.0091
     12 C12           3.662172    0.882112   -0.467318 C.ar     1 SUBUNIT    0.0023
     13 C13           4.355773   -0.257787   -0.040818 C.ar     1 SUBUNIT    0.0325
     14 N14           3.404472   -1.253787    0.501882 N.ar     1 SUBUNIT   -0.2102
     15 C15           4.332173    1.978711   -1.043718 C.ar     1 SUBUNIT    0.0103
     16 C16           5.736873    1.917512   -1.179318 C.ar     1 SUBUNIT    0.0008
     17 C17           6.447973    0.781812   -0.742318 C.ar     1 SUBUNIT    0.0017
     18 C18           5.761273   -0.310887   -0.165418 C.ar     1 SUBUNIT    0.0211
     19 N19           0.459574   -2.216089    1.403582 N.ar     1 SUBUNIT   -0.2149
     20 C20          -0.982226   -2.115488    1.570082 C.ar     1 SUBUNIT    0.0322
     21 C21          -1.425026   -0.873588    1.084982 C.ar     1 SUBUNIT    0.0027
     22 C22          -2.793528   -0.540787    1.153382 C.ar     1 SUBUNIT    0.0103
     23 C23          -3.693328   -1.479387    1.711082 C.ar     1 SUBUNIT    0.0008
     24 C24          -3.242328   -2.726389    2.189981 C.ar     1 SUBUNIT    0.0017
     25 C25          -1.872427   -3.057589    2.123381 C.ar     1 SUBUNIT    0.0211
     26 C26           1.304674   -3.374389    1.651082 C.3      1 SUBUNIT    0.2014
     27 O27           2.463772   -3.491189    0.773482 O.3      1 SUBUNIT   -0.3381
     28 C28           3.610972   -2.622689    1.055782 C.3      1 SUBUNIT    0.1566
     29 C29           1.677974   -3.562189    3.157681 C.3      1 SUBUNIT    0.0709
     30 C30           3.212072   -3.726089    3.376781 C.3      1 SUBUNIT    0.0904
     31 C31           3.945972   -2.577089    2.607381 C.3      1 SUBUNIT    0.1821
     32 C32           4.725574   -3.403389    0.292882 C.3      1 SUBUNIT    0.0642
     33 N33           3.619772   -3.806189    4.822886 N.3      1 SUBUNIT   -0.3142
     34 H34           4.577573   -3.858389    4.872286 H        1 SUBUNIT    0.1223
     35 C35           3.056972   -4.987388    5.538986 C.3      1 SUBUNIT    0.1013
     36 O36           3.671072   -1.273687    3.201381 O.3      1 SUBUNIT   -0.3753
     37 C37           4.741973   -0.765688    4.043582 C.3      1 SUBUNIT    0.1951
@<TRIPOS>BOND
     1    1    2 1
     2    2    3 1
     3    2    6 1
     4    3    4 1
     5    3    7 2
     6    4    5 ar
     7    4    8 ar
     8    5    6 1
     9    5   11 ar
    10    8    9 ar
    11    8   21 ar
    12    9   10 ar
    13    9   19 ar
    14   10   11 ar
    15   10   14 ar
    16   11   12 ar
    17   12   13 ar
    18   12   15 ar
    19   13   14 ar
    20   13   18 ar
    21   14   28 1
    22   15   16 ar
    23   16   17 ar
    24   17   18 ar
    25   19   20 ar
    26   19   26 1
    27   20   21 ar
    28   20   25 ar
    29   21   22 ar
    30   22   23 ar
    31   23   24 ar
    32   24   25 ar
    33   26   27 1
    34   26   29 1
    35   27   28 1
    36   28   31 1
    37   28   32 1
    38   29   30 1
    39   30   31 1
    40   30   33 1
    41   31   36 1
    42   33   34 1
    43   33   35 1
    44   36   37 1
@<SCITEGIC>ATOM_PROPERTY
Formal Charge
SciTegic.value.StringValue
1 0
2 0
3 0
4 0
5 0
6 0
7 0
8 0
9 0
10 0
11 0
12 0
13 0
14 0
15 0
16 0
17 0
18 0
19 0
20 0
21 0
22 0
23 0
24 0
25 0
26 0
27 0
28 0
29 0
30 0
31 0
32 0
33 0
34 0
35 0
36 0
37 0

@<SCITEGIC>ATOM_PROPERTY
pdb_tempFactor
SciTegic.value.DoubleValue
1 0.00
2 0.00
3 0.00
4 0.00
5 0.00
6 0.00
7 0.00
8 0.00
9 0.00
10 0.00
11 0.00
12 0.00
13 0.00
14 0.00
15 0.00
16 0.00
17 0.00
18 0.00
19 0.00
20 0.00
21 0.00
22 0.00
23 0.00
24 0.00
25 0.00
26 0.00
27 0.00
28 0.00
29 0.00
30 0.00
31 0.00
32 0.00
33 0.00
34 0.00
35 0.00
36 0.00
37 0.00

@<SCITEGIC>ATOM_PROPERTY
pdb_occupancy
SciTegic.value.DoubleValue
1 1.00
2 1.00
3 1.00
4 1.00
5 1.00
6 1.00
7 1.00
8 1.00
9 1.00
10 1.00
11 1.00
12 1.00
13 1.00
14 1.00
15 1.00
16 1.00
17 1.00
18 1.00
19 1.00
20 1.00
21 1.00
22 1.00
23 1.00
24 1.00
25 1.00
26 1.00
27 1.00
28 1.00
29 1.00
30 1.00
31 1.00
32 1.00
33 1.00
34 1.00
35 1.00
36 1.00
37 1.00

#	Copyright 2023 drugdesign.org
#	Creation time:	2024-01-11T10:51:54Z

@<SCITEGIC>ROOT_PROPERTY
Ligand:MaximumNumberOfAtoms
SciTegic.value.IntegerValue
100

@<SCITEGIC>ROOT_PROPERTY
Ligand:HydrogenAtomsCountTowardsMaximum
SciTegic.value.BooleanValue
FALSE

@<TRIPOS>MOLECULE
staurosporine
   29    31     0 0 0
SMALL
USER_CHARGES


@<TRIPOS>ATOM
      1 H1          -11.707929    0.405253    1.835082 H        1 SUBUNIT    0.1593
      2 N2          -11.302466   -0.465308    2.113873 N.am     1 SUBUNIT   -0.2475
      3 C3          -12.067467   -1.459109    2.627573 C.2      1 SUBUNIT    0.2505
      4 C4          -11.086666   -2.517207    2.976972 C.ar     1 SUBUNIT    0.0517
      5 C5           -9.802163   -2.098007    2.599473 C.ar     1 SUBUNIT    0.0517
      6 C6           -9.844964   -0.708208    1.977672 C.2      1 SUBUNIT    0.2505
      7 O7          -13.290270   -1.396108    2.737473 O.2      1 SUBUNIT   -0.2714
      8 C8          -11.260567   -3.785607    3.590973 C.ar     1 SUBUNIT    0.0360
      9 C9          -10.133265   -4.600606    3.788073 C.ar     1 SUBUNIT    0.0383
     10 C10          -8.841265   -4.183105    3.400372 C.ar     1 SUBUNIT    0.0383
     11 C11          -8.678665   -2.923208    2.811073 C.ar     1 SUBUNIT    0.0360
     12 C12          -6.572890   -2.718674    3.567258 C.ar     1 SUBUNIT   -0.0439
     13 C13          -6.491741   -4.108098    3.408259 C.ar     1 SUBUNIT    0.0189
     14 N14          -7.563152   -4.883204    3.514972 N.pl3    1 SUBUNIT   -0.2576
     15 C15          -5.425313   -1.903712    3.516490 C.ar     1 SUBUNIT    0.0016
     16 C16          -4.169511   -2.516525    3.309767 C.ar     1 SUBUNIT    0.0001
     17 C17          -4.072690   -3.914752    3.161304 C.ar     1 SUBUNIT    0.0016
     18 C18          -5.233703   -4.719445    3.214957 C.ar     1 SUBUNIT    0.0201
     19 N19         -10.508066   -5.845505    4.416674 N.pl3    1 SUBUNIT   -0.2576
     20 C20         -11.830330   -6.058893    5.229050 C.ar     1 SUBUNIT    0.0189
     21 C21         -12.751797   -5.055049    4.887134 C.ar     1 SUBUNIT   -0.0439
     22 C22         -14.025333   -5.035697    5.492087 C.ar     1 SUBUNIT    0.0016
     23 C23         -14.344729   -6.041822    6.434065 C.ar     1 SUBUNIT    0.0001
     24 C24         -13.416980   -7.049780    6.767309 C.ar     1 SUBUNIT    0.0016
     25 C25         -12.141961   -7.066959    6.163306 C.ar     1 SUBUNIT    0.0201
     26 H26          -9.872074   -6.609826    4.310247 H        1 SUBUNIT    0.1343
     27 H27          -7.617428   -5.874773    3.632643 H        1 SUBUNIT    0.1343
     28 O58          -8.939273    0.024159    1.490862 O.2      1 SUBUNIT   -0.2714
     29 H62          -6.038550   -7.505918    4.795636 H        1 SUBUNIT    0.0000
@<TRIPOS>BOND
     1    1    2 1
     2    2    3 1
     3    2    6 1
     4    3    4 1
     5    3    7 2
     6    4    5 ar
     7    4    8 ar
     8    5    6 1
     9    5   11 ar
    10    8    9 ar
    11    9   10 ar
    12    9   19 1
    13   10   11 ar
    14   10   14 1
    15   12   13 ar
    16   12   15 ar
    17   13   14 1
    18   13   18 ar
    19   14   27 1
    20   15   16 ar
    21   16   17 ar
    22   17   18 ar
    23   19   20 1
    24   19   26 1
    25   20   21 ar
    26   20   25 ar
    27   21   22 ar
    28   22   23 ar
    29   23   24 ar
    30   24   25 ar
    31    6   28 2
@<SCITEGIC>ATOM_PROPERTY
Formal Charge
SciTegic.value.StringValue
1 0
2 0
3 0
4 0
5 0
6 0
7 0
8 0
9 0
10 0
11 0
12 0
13 0
14 0
15 0
16 0
17 0
18 0
19 0
20 0
21 0
22 0
23 0
24 0
25 0
26 0
27 0
28 0
29 0

@<SCITEGIC>ATOM_PROPERTY
pdb_tempFactor
SciTegic.value.DoubleValue
1 0.00
2 0.00
3 0.00
4 0.00
5 0.00
6 0.00
7 0.00
8 0.00
9 0.00
10 0.00
11 0.00
12 0.00
13 0.00
14 0.00
15 0.00
16 0.00
17 0.00
18 0.00
19 0.00
20 0.00
21 0.00
22 0.00
23 0.00
24 0.00
25 0.00
26 0.00
27 0.00
28 0.00
29 0.00

@<SCITEGIC>ATOM_PROPERTY
pdb_occupancy
SciTegic.value.DoubleValue
1 1.00
2 1.00
3 1.00
4 1.00
5 1.00
6 1.00
7 1.00
8 1.00
9 1.00
10 1.00
11 1.00
12 1.00
13 1.00
14 1.00
15 1.00
16 1.00
17 1.00
18 1.00
19 1.00
20 1.00
21 1.00
22 1.00
23 1.00
24 1.00
25 1.00
26 1.00
27 1.00
28 1.00
29 1.00

#	Copyright 2023 drugdesign.org
#	Creation time:	2024-01-11T10:51:54Z

@<SCITEGIC>ROOT_PROPERTY
Ligand:MaximumNumberOfAtoms
SciTegic.value.IntegerValue
100

@<SCITEGIC>ROOT_PROPERTY
Ligand:HydrogenAtomsCountTowardsMaximum
SciTegic.value.BooleanValue
FALSE

@<TRIPOS>MOLECULE
staurosporine
   37    44     0 0 0
SMALL
USER_CHARGES


@<TRIPOS>ATOM
      1 H1           -0.695626    3.958011   -1.146518 H        1 SUBUNIT    0.1500
      2 N2           -0.334826    3.164111   -0.899218 N.am     1 SUBUNIT   -0.3071
      3 C3           -1.099826    2.170311   -0.385518 C.2      1 SUBUNIT    0.2442
      4 C4           -0.119026    1.112213   -0.036118 C.ar     1 SUBUNIT    0.0521
      5 C5            1.165474    1.531413   -0.413618 C.ar     1 SUBUNIT   -0.0080
      6 C6            1.122674    2.921211   -1.035418 C.3      1 SUBUNIT    0.1417
      7 O7           -2.322628    2.233311   -0.275618 O.2      1 SUBUNIT   -0.2719
      8 C8           -0.292926   -0.156187    0.577882 C.ar     1 SUBUNIT    0.0164
      9 C9            0.834374   -0.971188    0.774982 C.ar     1 SUBUNIT    0.0522
     10 C10           2.126373   -0.553687    0.387282 C.ar     1 SUBUNIT    0.0521
     11 C11           2.288972    0.706212   -0.202018 C.ar     1 SUBUNIT    0.0091
     12 C12           3.662172    0.882112   -0.467318 C.ar     1 SUBUNIT    0.0023
     13 C13           4.355773   -0.257787   -0.040818 C.ar     1 SUBUNIT    0.0325
     14 N14           3.404472   -1.253787    0.501882 N.ar     1 SUBUNIT   -0.2102
     15 C15           4.332173    1.978711   -1.043718 C.ar     1 SUBUNIT    0.0103
     16 C16           5.736873    1.917512   -1.179318 C.ar     1 SUBUNIT    0.0008
     17 C17           6.447973    0.781812   -0.742318 C.ar     1 SUBUNIT    0.0017
     18 C18           5.761273   -0.310887   -0.165418 C.ar     1 SUBUNIT    0.0211
     19 N19           0.459574   -2.216089    1.403582 N.ar     1 SUBUNIT   -0.2149
     20 C20          -0.982226   -2.115488    1.570082 C.ar     1 SUBUNIT    0.0322
     21 C21          -1.425026   -0.873588    1.084982 C.ar     1 SUBUNIT    0.0027
     22 C22          -2.793528   -0.540787    1.153382 C.ar     1 SUBUNIT    0.0103
     23 C23          -3.693328   -1.479387    1.711082 C.ar     1 SUBUNIT    0.0008
     24 C24          -3.242328   -2.726389    2.189981 C.ar     1 SUBUNIT    0.0017
     25 C25          -1.872427   -3.057589    2.123381 C.ar     1 SUBUNIT    0.0211
     26 C26           1.304674   -3.374389    1.651082 C.3      1 SUBUNIT    0.2014
     27 O27           2.463772   -3.491189    0.773482 O.3      1 SUBUNIT   -0.3381
     28 C28           3.610972   -2.622689    1.055782 C.3      1 SUBUNIT    0.1566
     29 C29           1.677974   -3.562189    3.157681 C.3      1 SUBUNIT    0.0709
     30 C30           3.212072   -3.726089    3.376781 C.3      1 SUBUNIT    0.0904
     31 C31           3.945972   -2.577089    2.607381 C.3      1 SUBUNIT    0.1821
     32 C32           4.725574   -3.403389    0.292882 C.3      1 SUBUNIT    0.0642
     33 N33           3.619772   -3.806189    4.822886 N.3      1 SUBUNIT   -0.3142
     34 H34           4.577573   -3.858389    4.872286 H        1 SUBUNIT    0.1223
     35 C35           3.056972   -4.987388    5.538986 C.3      1 SUBUNIT    0.1013
     36 O36           3.671072   -1.273687    3.201381 O.3      1 SUBUNIT   -0.3753
     37 C37           4.741973   -0.765688    4.043582 C.3      1 SUBUNIT    0.1951
@<TRIPOS>BOND
     1    1    2 1
     2    2    3 1
     3    2    6 1
     4    3    4 1
     5    3    7 2
     6    4    5 ar
     7    4    8 ar
     8    5    6 1
     9    5   11 ar
    10    8    9 ar
    11    8   21 ar
    12    9   10 ar
    13    9   19 ar
    14   10   11 ar
    15   10   14 ar
    16   11   12 ar
    17   12   13 ar
    18   12   15 ar
    19   13   14 ar
    20   13   18 ar
    21   14   28 1
    22   15   16 ar
    23   16   17 ar
    24   17   18 ar
    25   19   20 ar
    26   19   26 1
    27   20   21 ar
    28   20   25 ar
    29   21   22 ar
    30   22   23 ar
    31   23   24 ar
    32   24   25 ar
    33   26   27 1
    34   26   29 1
    35   27   28 1
    36   28   31 1
    37   28   32 1
    38   29   30 1
    39   30   31 1
    40   30   33 1
    41   31   36 1
    42   33   34 1
    43   33   35 1
    44   36   37 1
@<SCITEGIC>ATOM_PROPERTY
Formal Charge
SciTegic.value.StringValue
1 0
2 0
3 0
4 0
5 0
6 0
7 0
8 0
9 0
10 0
11 0
12 0
13 0
14 0
15 0
16 0
17 0
18 0
19 0
20 0
21 0
22 0
23 0
24 0
25 0
26 0
27 0
28 0
29 0
30 0
31 0
32 0
33 0
34 0
35 0
36 0
37 0

@<SCITEGIC>ATOM_PROPERTY
pdb_tempFactor
SciTegic.value.DoubleValue
1 0.00
2 0.00
3 0.00
4 0.00
5 0.00
6 0.00
7 0.00
8 0.00
9 0.00
10 0.00
11 0.00
12 0.00
13 0.00
14 0.00
15 0.00
16 0.00
17 0.00
18 0.00
19 0.00
20 0.00
21 0.00
22 0.00
23 0.00
24 0.00
25 0.00
26 0.00
27 0.00
28 0.00
29 0.00
30 0.00
31 0.00
32 0.00
33 0.00
34 0.00
35 0.00
36 0.00
37 0.00

@<SCITEGIC>ATOM_PROPERTY
pdb_occupancy
SciTegic.value.DoubleValue
1 1.00
2 1.00
3 1.00
4 1.00
5 1.00
6 1.00
7 1.00
8 1.00
9 1.00
10 1.00
11 1.00
12 1.00
13 1.00
14 1.00
15 1.00
16 1.00
17 1.00
18 1.00
19 1.00
20 1.00
21 1.00
22 1.00
23 1.00
24 1.00
25 1.00
26 1.00
27 1.00
28 1.00
29 1.00
30 1.00
31 1.00
32 1.00
33 1.00
34 1.00
35 1.00
36 1.00
37 1.00

#	Copyright 2023 drugdesign.org
#	Creation time:	2024-01-11T10:51:54Z

@<SCITEGIC>ROOT_PROPERTY
Ligand:MaximumNumberOfAtoms
SciTegic.value.IntegerValue
100

@<SCITEGIC>ROOT_PROPERTY
Ligand:HydrogenAtomsCountTowardsMaximum
SciTegic.value.BooleanValue
FALSE

@<TRIPOS>MOLECULE
staurosporine
   29    31     0 0 0
SMALL
USER_CHARGES


@<TRIPOS>ATOM
      1 H1          -11.707929    0.405253    1.835082 H        1 SUBUNIT    0.1593
      2 N2          -11.302466   -0.465308    2.113873 N.am     1 SUBUNIT   -0.2475
      3 C3          -12.067467   -1.459109    2.627573 C.2      1 SUBUNIT    0.2505
      4 C4          -11.086666   -2.517207    2.976972 C.ar     1 SUBUNIT    0.0517
      5 C5           -9.802163   -2.098007    2.599473 C.ar     1 SUBUNIT    0.0517
      6 C6           -9.844964   -0.708208    1.977672 C.2      1 SUBUNIT    0.2505
      7 O7          -13.290270   -1.396108    2.737473 O.2      1 SUBUNIT   -0.2714
      8 C8          -11.260567   -3.785607    3.590973 C.ar     1 SUBUNIT    0.0360
      9 C9          -10.133265   -4.600606    3.788073 C.ar     1 SUBUNIT    0.0383
     10 C10          -8.841265   -4.183105    3.400372 C.ar     1 SUBUNIT    0.0383
     11 C11          -8.678665   -2.923208    2.811073 C.ar     1 SUBUNIT    0.0360
     12 C12          -6.406297   -2.817948    3.605593 C.ar     1 SUBUNIT   -0.0439
     13 C13          -6.498169   -4.208544    3.463577 C.ar     1 SUBUNIT    0.0189
     14 N14          -7.563152   -4.883204    3.514972 N.pl3    1 SUBUNIT   -0.2576
     15 C15          -5.160521   -2.161428    3.631850 C.ar     1 SUBUNIT    0.0016
     16 C16          -3.985116   -2.937017    3.521385 C.ar     1 SUBUNIT    0.0001
     17 C17          -4.063400   -4.338212    3.391082 C.ar     1 SUBUNIT    0.0016
     18 C18          -5.321312   -4.982742    3.366650 C.ar     1 SUBUNIT    0.0201
     19 N19         -10.508066   -5.845505    4.416674 N.pl3    1 SUBUNIT   -0.2576
     20 C20         -11.866014   -6.082040    5.245029 C.ar     1 SUBUNIT    0.0189
     21 C21         -12.972596   -5.248119    5.013158 C.ar     1 SUBUNIT   -0.0439
     22 C22         -14.168143   -5.452096    5.732389 C.ar     1 SUBUNIT    0.0016
     23 C23         -14.221850   -6.505669    6.675111 C.ar     1 SUBUNIT    0.0001
     24 C24         -13.109227   -7.342495    6.897674 C.ar     1 SUBUNIT    0.0016
     25 C25         -11.912499   -7.136135    6.179306 C.ar     1 SUBUNIT    0.0201
     26 H26          -9.852691   -6.586841    4.272092 H        1 SUBUNIT    0.1343
     27 H27          -7.597813   -5.879179    3.597639 H        1 SUBUNIT    0.1343
     28 O58          -8.939273    0.024159    1.490862 O.2      1 SUBUNIT   -0.2714
     29 H62          -6.038550   -7.505918    4.795636 H        1 SUBUNIT    0.0000
@<TRIPOS>BOND
     1    1    2 1
     2    2    3 1
     3    2    6 1
     4    3    4 1
     5    3    7 2
     6    4    5 ar
     7    4    8 ar
     8    5    6 1
     9    5   11 ar
    10    8    9 ar
    11    9   10 ar
    12    9   19 1
    13   10   11 ar
    14   10   14 1
    15   12   13 ar
    16   12   15 ar
    17   13   14 1
    18   13   18 ar
    19   14   27 1
    20   15   16 ar
    21   16   17 ar
    22   17   18 ar
    23   19   20 1
    24   19   26 1
    25   20   21 ar
    26   20   25 ar
    27   21   22 ar
    28   22   23 ar
    29   23   24 ar
    30   24   25 ar
    31    6   28 2
@<SCITEGIC>ATOM_PROPERTY
Formal Charge
SciTegic.value.StringValue
1 0
2 0
3 0
4 0
5 0
6 0
7 0
8 0
9 0
10 0
11 0
12 0
13 0
14 0
15 0
16 0
17 0
18 0
19 0
20 0
21 0
22 0
23 0
24 0
25 0
26 0
27 0
28 0
29 0

@<SCITEGIC>ATOM_PROPERTY
pdb_tempFactor
SciTegic.value.DoubleValue
1 0.00
2 0.00
3 0.00
4 0.00
5 0.00
6 0.00
7 0.00
8 0.00
9 0.00
10 0.00
11 0.00
12 0.00
13 0.00
14 0.00
15 0.00
16 0.00
17 0.00
18 0.00
19 0.00
20 0.00
21 0.00
22 0.00
23 0.00
24 0.00
25 0.00
26 0.00
27 0.00
28 0.00
29 0.00

@<SCITEGIC>ATOM_PROPERTY
pdb_occupancy
SciTegic.value.DoubleValue
1 1.00
2 1.00
3 1.00
4 1.00
5 1.00
6 1.00
7 1.00
8 1.00
9 1.00
10 1.00
11 1.00
12 1.00
13 1.00
14 1.00
15 1.00
16 1.00
17 1.00
18 1.00
19 1.00
20 1.00
21 1.00
22 1.00
23 1.00
24 1.00
25 1.00
26 1.00
27 1.00
28 1.00
29 1.00

#	Copyright 2023 drugdesign.org
#	Creation time:	2024-01-11T10:51:55Z

@<SCITEGIC>ROOT_PROPERTY
Ligand:MaximumNumberOfAtoms
SciTegic.value.IntegerValue
100

@<SCITEGIC>ROOT_PROPERTY
Ligand:HydrogenAtomsCountTowardsMaximum
SciTegic.value.BooleanValue
FALSE

@<TRIPOS>MOLECULE
staurosporine
   37    44     0 0 0
SMALL
USER_CHARGES


@<TRIPOS>ATOM
      1 H1           -0.695626    3.958011   -1.146518 H        1 SUBUNIT    0.1500
      2 N2           -0.334826    3.164111   -0.899218 N.am     1 SUBUNIT   -0.3071
      3 C3           -1.099826    2.170311   -0.385518 C.2      1 SUBUNIT    0.2442
      4 C4           -0.119026    1.112213   -0.036118 C.ar     1 SUBUNIT    0.0521
      5 C5            1.165474    1.531413   -0.413618 C.ar     1 SUBUNIT   -0.0080
      6 C6            1.122674    2.921211   -1.035418 C.3      1 SUBUNIT    0.1417
      7 O7           -2.322628    2.233311   -0.275618 O.2      1 SUBUNIT   -0.2719
      8 C8           -0.292926   -0.156187    0.577882 C.ar     1 SUBUNIT    0.0164
      9 C9            0.834374   -0.971188    0.774982 C.ar     1 SUBUNIT    0.0522
     10 C10           2.126373   -0.553687    0.387282 C.ar     1 SUBUNIT    0.0521
     11 C11           2.288972    0.706212   -0.202018 C.ar     1 SUBUNIT    0.0091
     12 C12           3.662172    0.882112   -0.467318 C.ar     1 SUBUNIT    0.0023
     13 C13           4.355773   -0.257787   -0.040818 C.ar     1 SUBUNIT    0.0325
     14 N14           3.404472   -1.253787    0.501882 N.ar     1 SUBUNIT   -0.2102
     15 C15           4.332173    1.978711   -1.043718 C.ar     1 SUBUNIT    0.0103
     16 C16           5.736873    1.917512   -1.179318 C.ar     1 SUBUNIT    0.0008
     17 C17           6.447973    0.781812   -0.742318 C.ar     1 SUBUNIT    0.0017
     18 C18           5.761273   -0.310887   -0.165418 C.ar     1 SUBUNIT    0.0211
     19 N19           0.459574   -2.216089    1.403582 N.ar     1 SUBUNIT   -0.2149
     20 C20          -0.982226   -2.115488    1.570082 C.ar     1 SUBUNIT    0.0322
     21 C21          -1.425026   -0.873588    1.084982 C.ar     1 SUBUNIT    0.0027
     22 C22          -2.793528   -0.540787    1.153382 C.ar     1 SUBUNIT    0.0103
     23 C23          -3.693328   -1.479387    1.711082 C.ar     1 SUBUNIT    0.0008
     24 C24          -3.242328   -2.726389    2.189981 C.ar     1 SUBUNIT    0.0017
     25 C25          -1.872427   -3.057589    2.123381 C.ar     1 SUBUNIT    0.0211
     26 C26           1.304674   -3.374389    1.651082 C.3      1 SUBUNIT    0.2014
     27 O27           2.463772   -3.491189    0.773482 O.3      1 SUBUNIT   -0.3381
     28 C28           3.610972   -2.622689    1.055782 C.3      1 SUBUNIT    0.1566
     29 C29           1.677974   -3.562189    3.157681 C.3      1 SUBUNIT    0.0709
     30 C30           3.212072   -3.726089    3.376781 C.3      1 SUBUNIT    0.0904
     31 C31           3.945972   -2.577089    2.607381 C.3      1 SUBUNIT    0.1821
     32 C32           4.725574   -3.403389    0.292882 C.3      1 SUBUNIT    0.0642
     33 N33           3.619772   -3.806189    4.822886 N.3      1 SUBUNIT   -0.3142
     34 H34           4.577573   -3.858389    4.872286 H        1 SUBUNIT    0.1223
     35 C35           3.056972   -4.987388    5.538986 C.3      1 SUBUNIT    0.1013
     36 O36           3.671072   -1.273687    3.201381 O.3      1 SUBUNIT   -0.3753
     37 C37           4.741973   -0.765688    4.043582 C.3      1 SUBUNIT    0.1951
@<TRIPOS>BOND
     1    1    2 1
     2    2    3 1
     3    2    6 1
     4    3    4 1
     5    3    7 2
     6    4    5 ar
     7    4    8 ar
     8    5    6 1
     9    5   11 ar
    10    8    9 ar
    11    8   21 ar
    12    9   10 ar
    13    9   19 ar
    14   10   11 ar
    15   10   14 ar
    16   11   12 ar
    17   12   13 ar
    18   12   15 ar
    19   13   14 ar
    20   13   18 ar
    21   14   28 1
    22   15   16 ar
    23   16   17 ar
    24   17   18 ar
    25   19   20 ar
    26   19   26 1
    27   20   21 ar
    28   20   25 ar
    29   21   22 ar
    30   22   23 ar
    31   23   24 ar
    32   24   25 ar
    33   26   27 1
    34   26   29 1
    35   27   28 1
    36   28   31 1
    37   28   32 1
    38   29   30 1
    39   30   31 1
    40   30   33 1
    41   31   36 1
    42   33   34 1
    43   33   35 1
    44   36   37 1
@<SCITEGIC>ATOM_PROPERTY
Formal Charge
SciTegic.value.StringValue
1 0
2 0
3 0
4 0
5 0
6 0
7 0
8 0
9 0
10 0
11 0
12 0
13 0
14 0
15 0
16 0
17 0
18 0
19 0
20 0
21 0
22 0
23 0
24 0
25 0
26 0
27 0
28 0
29 0
30 0
31 0
32 0
33 0
34 0
35 0
36 0
37 0

@<SCITEGIC>ATOM_PROPERTY
pdb_tempFactor
SciTegic.value.DoubleValue
1 0.00
2 0.00
3 0.00
4 0.00
5 0.00
6 0.00
7 0.00
8 0.00
9 0.00
10 0.00
11 0.00
12 0.00
13 0.00
14 0.00
15 0.00
16 0.00
17 0.00
18 0.00
19 0.00
20 0.00
21 0.00
22 0.00
23 0.00
24 0.00
25 0.00
26 0.00
27 0.00
28 0.00
29 0.00
30 0.00
31 0.00
32 0.00
33 0.00
34 0.00
35 0.00
36 0.00
37 0.00

@<SCITEGIC>ATOM_PROPERTY
pdb_occupancy
SciTegic.value.DoubleValue
1 1.00
2 1.00
3 1.00
4 1.00
5 1.00
6 1.00
7 1.00
8 1.00
9 1.00
10 1.00
11 1.00
12 1.00
13 1.00
14 1.00
15 1.00
16 1.00
17 1.00
18 1.00
19 1.00
20 1.00
21 1.00
22 1.00
23 1.00
24 1.00
25 1.00
26 1.00
27 1.00
28 1.00
29 1.00
30 1.00
31 1.00
32 1.00
33 1.00
34 1.00
35 1.00
36 1.00
37 1.00

#	Copyright 2023 drugdesign.org
#	Creation time:	2024-01-11T10:51:55Z

@<SCITEGIC>ROOT_PROPERTY
Ligand:MaximumNumberOfAtoms
SciTegic.value.IntegerValue
100

@<SCITEGIC>ROOT_PROPERTY
Ligand:HydrogenAtomsCountTowardsMaximum
SciTegic.value.BooleanValue
FALSE

@<TRIPOS>MOLECULE
staurosporine
   29    31     0 0 0
SMALL
USER_CHARGES


@<TRIPOS>ATOM
      1 H1          -11.707929    0.405253    1.835082 H        1 SUBUNIT    0.1593
      2 N2          -11.302466   -0.465308    2.113873 N.am     1 SUBUNIT   -0.2475
      3 C3          -12.067467   -1.459109    2.627573 C.2      1 SUBUNIT    0.2505
      4 C4          -11.086666   -2.517207    2.976972 C.ar     1 SUBUNIT    0.0517
      5 C5           -9.802163   -2.098007    2.599473 C.ar     1 SUBUNIT    0.0517
      6 C6           -9.844964   -0.708208    1.977672 C.2      1 SUBUNIT    0.2505
      7 O7          -13.290270   -1.396108    2.737473 O.2      1 SUBUNIT   -0.2714
      8 C8          -11.260567   -3.785607    3.590973 C.ar     1 SUBUNIT    0.0360
      9 C9          -10.133265   -4.600606    3.788073 C.ar     1 SUBUNIT    0.0383
     10 C10          -8.841265   -4.183105    3.400372 C.ar     1 SUBUNIT    0.0383
     11 C11          -8.678665   -2.923208    2.811073 C.ar     1 SUBUNIT    0.0360
     12 C12          -6.396884   -2.933864    4.187061 C.ar     1 SUBUNIT   -0.0439
     13 C13          -6.505569   -4.200084    3.597787 C.ar     1 SUBUNIT    0.0189
     14 N14          -7.563152   -4.883204    3.514972 N.pl3    1 SUBUNIT   -0.2576
     15 C15          -5.152140   -2.288566    4.320722 C.ar     1 SUBUNIT    0.0016
     16 C16          -3.994299   -2.949771    3.854320 C.ar     1 SUBUNIT    0.0001
     17 C17          -4.088398   -4.229493    3.271300 C.ar     1 SUBUNIT    0.0016
     18 C18          -5.345023   -4.864439    3.144426 C.ar     1 SUBUNIT    0.0201
     19 N19         -10.508066   -5.845505    4.416674 N.pl3    1 SUBUNIT   -0.2576
     20 C20         -11.783574   -6.040492    5.376467 C.ar     1 SUBUNIT    0.0189
     21 C21         -12.951177   -5.297191    5.135796 C.ar     1 SUBUNIT   -0.0439
     22 C22         -14.075150   -5.465903    5.970333 C.ar     1 SUBUNIT    0.0016
     23 C23         -13.996145   -6.392806    7.036276 C.ar     1 SUBUNIT    0.0001
     24 C24         -12.823061   -7.139872    7.267601 C.ar     1 SUBUNIT    0.0016
     25 C25         -11.697987   -6.968631    6.433528 C.ar     1 SUBUNIT    0.0201
     26 H26          -9.912598   -6.614015    4.182557 H        1 SUBUNIT    0.1343
     27 H27          -7.589957   -5.882523    3.489600 H        1 SUBUNIT    0.1343
     28 O58          -8.939273    0.024159    1.490862 O.2      1 SUBUNIT   -0.2714
     29 H62          -6.038550   -7.505918    4.795636 H        1 SUBUNIT    0.0000
@<TRIPOS>BOND
     1    1    2 1
     2    2    3 1
     3    2    6 1
     4    3    4 1
     5    3    7 2
     6    4    5 ar
     7    4    8 ar
     8    5    6 1
     9    5   11 ar
    10    8    9 ar
    11    9   10 ar
    12    9   19 1
    13   10   11 ar
    14   10   14 1
    15   12   13 ar
    16   12   15 ar
    17   13   14 1
    18   13   18 ar
    19   14   27 1
    20   15   16 ar
    21   16   17 ar
    22   17   18 ar
    23   19   20 1
    24   19   26 1
    25   20   21 ar
    26   20   25 ar
    27   21   22 ar
    28   22   23 ar
    29   23   24 ar
    30   24   25 ar
    31    6   28 2
@<SCITEGIC>ATOM_PROPERTY
Formal Charge
SciTegic.value.StringValue
1 0
2 0
3 0
4 0
5 0
6 0
7 0
8 0
9 0
10 0
11 0
12 0
13 0
14 0
15 0
16 0
17 0
18 0
19 0
20 0
21 0
22 0
23 0
24 0
25 0
26 0
27 0
28 0
29 0

@<SCITEGIC>ATOM_PROPERTY
pdb_tempFactor
SciTegic.value.DoubleValue
1 0.00
2 0.00
3 0.00
4 0.00
5 0.00
6 0.00
7 0.00
8 0.00
9 0.00
10 0.00
11 0.00
12 0.00
13 0.00
14 0.00
15 0.00
16 0.00
17 0.00
18 0.00
19 0.00
20 0.00
21 0.00
22 0.00
23 0.00
24 0.00
25 0.00
26 0.00
27 0.00
28 0.00
29 0.00

@<SCITEGIC>ATOM_PROPERTY
pdb_occupancy
SciTegic.value.DoubleValue
1 1.00
2 1.00
3 1.00
4 1.00
5 1.00
6 1.00
7 1.00
8 1.00
9 1.00
10 1.00
11 1.00
12 1.00
13 1.00
14 1.00
15 1.00
16 1.00
17 1.00
18 1.00
19 1.00
20 1.00
21 1.00
22 1.00
23 1.00
24 1.00
25 1.00
26 1.00
27 1.00
28 1.00
29 1.00

#	Copyright 2023 drugdesign.org
#	Creation time:	2024-01-11T10:51:55Z

@<SCITEGIC>ROOT_PROPERTY
Ligand:MaximumNumberOfAtoms
SciTegic.value.IntegerValue
100

@<SCITEGIC>ROOT_PROPERTY
Ligand:HydrogenAtomsCountTowardsMaximum
SciTegic.value.BooleanValue
FALSE

@<TRIPOS>MOLECULE
staurosporine
   37    44     0 0 0
SMALL
USER_CHARGES


@<TRIPOS>ATOM
      1 H1           -0.695626    3.958011   -1.146518 H        1 SUBUNIT    0.1500
      2 N2           -0.334826    3.164111   -0.899218 N.am     1 SUBUNIT   -0.3071
      3 C3           -1.099826    2.170311   -0.385518 C.2      1 SUBUNIT    0.2442
      4 C4           -0.119026    1.112213   -0.036118 C.ar     1 SUBUNIT    0.0521
      5 C5            1.165474    1.531413   -0.413618 C.ar     1 SUBUNIT   -0.0080
      6 C6            1.122674    2.921211   -1.035418 C.3      1 SUBUNIT    0.1417
      7 O7           -2.322628    2.233311   -0.275618 O.2      1 SUBUNIT   -0.2719
      8 C8           -0.292926   -0.156187    0.577882 C.ar     1 SUBUNIT    0.0164
      9 C9            0.834374   -0.971188    0.774982 C.ar     1 SUBUNIT    0.0522
     10 C10           2.126373   -0.553687    0.387282 C.ar     1 SUBUNIT    0.0521
     11 C11           2.288972    0.706212   -0.202018 C.ar     1 SUBUNIT    0.0091
     12 C12           3.662172    0.882112   -0.467318 C.ar     1 SUBUNIT    0.0023
     13 C13           4.355773   -0.257787   -0.040818 C.ar     1 SUBUNIT    0.0325
     14 N14           3.404472   -1.253787    0.501882 N.ar     1 SUBUNIT   -0.2102
     15 C15           4.332173    1.978711   -1.043718 C.ar     1 SUBUNIT    0.0103
     16 C16           5.736873    1.917512   -1.179318 C.ar     1 SUBUNIT    0.0008
     17 C17           6.447973    0.781812   -0.742318 C.ar     1 SUBUNIT    0.0017
     18 C18           5.761273   -0.310887   -0.165418 C.ar     1 SUBUNIT    0.0211
     19 N19           0.459574   -2.216089    1.403582 N.ar     1 SUBUNIT   -0.2149
     20 C20          -0.982226   -2.115488    1.570082 C.ar     1 SUBUNIT    0.0322
     21 C21          -1.425026   -0.873588    1.084982 C.ar     1 SUBUNIT    0.0027
     22 C22          -2.793528   -0.540787    1.153382 C.ar     1 SUBUNIT    0.0103
     23 C23          -3.693328   -1.479387    1.711082 C.ar     1 SUBUNIT    0.0008
     24 C24          -3.242328   -2.726389    2.189981 C.ar     1 SUBUNIT    0.0017
     25 C25          -1.872427   -3.057589    2.123381 C.ar     1 SUBUNIT    0.0211
     26 C26           1.304674   -3.374389    1.651082 C.3      1 SUBUNIT    0.2014
     27 O27           2.463772   -3.491189    0.773482 O.3      1 SUBUNIT   -0.3381
     28 C28           3.610972   -2.622689    1.055782 C.3      1 SUBUNIT    0.1566
     29 C29           1.677974   -3.562189    3.157681 C.3      1 SUBUNIT    0.0709
     30 C30           3.212072   -3.726089    3.376781 C.3      1 SUBUNIT    0.0904
     31 C31           3.945972   -2.577089    2.607381 C.3      1 SUBUNIT    0.1821
     32 C32           4.725574   -3.403389    0.292882 C.3      1 SUBUNIT    0.0642
     33 N33           3.619772   -3.806189    4.822886 N.3      1 SUBUNIT   -0.3142
     34 H34           4.577573   -3.858389    4.872286 H        1 SUBUNIT    0.1223
     35 C35           3.056972   -4.987388    5.538986 C.3      1 SUBUNIT    0.1013
     36 O36           3.671072   -1.273687    3.201381 O.3      1 SUBUNIT   -0.3753
     37 C37           4.741973   -0.765688    4.043582 C.3      1 SUBUNIT    0.1951
@<TRIPOS>BOND
     1    1    2 1
     2    2    3 1
     3    2    6 1
     4    3    4 1
     5    3    7 2
     6    4    5 ar
     7    4    8 ar
     8    5    6 1
     9    5   11 ar
    10    8    9 ar
    11    8   21 ar
    12    9   10 ar
    13    9   19 ar
    14   10   11 ar
    15   10   14 ar
    16   11   12 ar
    17   12   13 ar
    18   12   15 ar
    19   13   14 ar
    20   13   18 ar
    21   14   28 1
    22   15   16 ar
    23   16   17 ar
    24   17   18 ar
    25   19   20 ar
    26   19   26 1
    27   20   21 ar
    28   20   25 ar
    29   21   22 ar
    30   22   23 ar
    31   23   24 ar
    32   24   25 ar
    33   26   27 1
    34   26   29 1
    35   27   28 1
    36   28   31 1
    37   28   32 1
    38   29   30 1
    39   30   31 1
    40   30   33 1
    41   31   36 1
    42   33   34 1
    43   33   35 1
    44   36   37 1
@<SCITEGIC>ATOM_PROPERTY
Formal Charge
SciTegic.value.StringValue
1 0
2 0
3 0
4 0
5 0
6 0
7 0
8 0
9 0
10 0
11 0
12 0
13 0
14 0
15 0
16 0
17 0
18 0
19 0
20 0
21 0
22 0
23 0
24 0
25 0
26 0
27 0
28 0
29 0
30 0
31 0
32 0
33 0
34 0
35 0
36 0
37 0

@<SCITEGIC>ATOM_PROPERTY
pdb_tempFactor
SciTegic.value.DoubleValue
1 0.00
2 0.00
3 0.00
4 0.00
5 0.00
6 0.00
7 0.00
8 0.00
9 0.00
10 0.00
11 0.00
12 0.00
13 0.00
14 0.00
15 0.00
16 0.00
17 0.00
18 0.00
19 0.00
20 0.00
21 0.00
22 0.00
23 0.00
24 0.00
25 0.00
26 0.00
27 0.00
28 0.00
29 0.00
30 0.00
31 0.00
32 0.00
33 0.00
34 0.00
35 0.00
36 0.00
37 0.00

@<SCITEGIC>ATOM_PROPERTY
pdb_occupancy
SciTegic.value.DoubleValue
1 1.00
2 1.00
3 1.00
4 1.00
5 1.00
6 1.00
7 1.00
8 1.00
9 1.00
10 1.00
11 1.00
12 1.00
13 1.00
14 1.00
15 1.00
16 1.00
17 1.00
18 1.00
19 1.00
20 1.00
21 1.00
22 1.00
23 1.00
24 1.00
25 1.00
26 1.00
27 1.00
28 1.00
29 1.00
30 1.00
31 1.00
32 1.00
33 1.00
34 1.00
35 1.00
36 1.00
37 1.00

#	Copyright 2023 drugdesign.org
#	Creation time:	2024-01-11T10:51:55Z

@<SCITEGIC>ROOT_PROPERTY
Ligand:MaximumNumberOfAtoms
SciTegic.value.IntegerValue
100

@<SCITEGIC>ROOT_PROPERTY
Ligand:HydrogenAtomsCountTowardsMaximum
SciTegic.value.BooleanValue
FALSE

@<TRIPOS>MOLECULE
staurosporine
   29    31     0 0 0
SMALL
USER_CHARGES


@<TRIPOS>ATOM
      1 H1          -11.707929    0.405253    1.835082 H        1 SUBUNIT    0.1593
      2 N2          -11.302466   -0.465308    2.113873 N.am     1 SUBUNIT   -0.2475
      3 C3          -12.067467   -1.459109    2.627573 C.2      1 SUBUNIT    0.2505
      4 C4          -11.086666   -2.517207    2.976972 C.ar     1 SUBUNIT    0.0517
      5 C5           -9.802163   -2.098007    2.599473 C.ar     1 SUBUNIT    0.0517
      6 C6           -9.844964   -0.708208    1.977672 C.2      1 SUBUNIT    0.2505
      7 O7          -13.290270   -1.396108    2.737473 O.2      1 SUBUNIT   -0.2714
      8 C8          -11.260567   -3.785607    3.590973 C.ar     1 SUBUNIT    0.0360
      9 C9          -10.133265   -4.600606    3.788073 C.ar     1 SUBUNIT    0.0383
     10 C10          -8.841265   -4.183105    3.400372 C.ar     1 SUBUNIT    0.0383
     11 C11          -8.678665   -2.923208    2.811073 C.ar     1 SUBUNIT    0.0360
     12 C12          -6.257758   -3.219298    4.518520 C.ar     1 SUBUNIT   -0.0439
     13 C13          -6.381115   -4.376386    3.738585 C.ar     1 SUBUNIT    0.0189
     14 N14          -7.563152   -4.883204    3.514972 N.pl3    1 SUBUNIT   -0.2576
     15 C15          -5.015774   -2.578630    4.693686 C.ar     1 SUBUNIT    0.0016
     16 C16          -3.875461   -3.132625    4.070716 C.ar     1 SUBUNIT    0.0001
     17 C17          -3.983766   -4.303746    3.294055 C.ar     1 SUBUNIT    0.0016
     18 C18          -5.237391   -4.935531    3.127831 C.ar     1 SUBUNIT    0.0201
     19 N19         -10.508066   -5.845505    4.416674 N.pl3    1 SUBUNIT   -0.2576
     20 C20         -11.656774   -6.136272    5.525280 C.ar     1 SUBUNIT    0.0189
     21 C21         -12.872878   -5.471515    5.295272 C.ar     1 SUBUNIT   -0.0439
     22 C22         -13.937416   -5.619778    6.207964 C.ar     1 SUBUNIT    0.0016
     23 C23         -13.750340   -6.446772    7.340532 C.ar     1 SUBUNIT    0.0001
     24 C24         -12.529106   -7.115828    7.561224 C.ar     1 SUBUNIT    0.0016
     25 C25         -11.463575   -6.964957    6.648714 C.ar     1 SUBUNIT    0.0201
     26 H26          -9.982864   -6.645404    4.126289 H        1 SUBUNIT    0.1343
     27 H27          -7.598847   -5.876881    3.408520 H        1 SUBUNIT    0.1343
     28 O58          -8.939273    0.024159    1.490862 O.2      1 SUBUNIT   -0.2714
     29 H62          -6.038550   -7.505918    4.795636 H        1 SUBUNIT    0.0000
@<TRIPOS>BOND
     1    1    2 1
     2    2    3 1
     3    2    6 1
     4    3    4 1
     5    3    7 2
     6    4    5 ar
     7    4    8 ar
     8    5    6 1
     9    5   11 ar
    10    8    9 ar
    11    9   10 ar
    12    9   19 1
    13   10   11 ar
    14   10   14 1
    15   12   13 ar
    16   12   15 ar
    17   13   14 1
    18   13   18 ar
    19   14   27 1
    20   15   16 ar
    21   16   17 ar
    22   17   18 ar
    23   19   20 1
    24   19   26 1
    25   20   21 ar
    26   20   25 ar
    27   21   22 ar
    28   22   23 ar
    29   23   24 ar
    30   24   25 ar
    31    6   28 2
@<SCITEGIC>ATOM_PROPERTY
Formal Charge
SciTegic.value.StringValue
1 0
2 0
3 0
4 0
5 0
6 0
7 0
8 0
9 0
10 0
11 0
12 0
13 0
14 0
15 0
16 0
17 0
18 0
19 0
20 0
21 0
22 0
23 0
24 0
25 0
26 0
27 0
28 0
29 0

@<SCITEGIC>ATOM_PROPERTY
pdb_tempFactor
SciTegic.value.DoubleValue
1 0.00
2 0.00
3 0.00
4 0.00
5 0.00
6 0.00
7 0.00
8 0.00
9 0.00
10 0.00
11 0.00
12 0.00
13 0.00
14 0.00
15 0.00
16 0.00
17 0.00
18 0.00
19 0.00
20 0.00
21 0.00
22 0.00
23 0.00
24 0.00
25 0.00
26 0.00
27 0.00
28 0.00
29 0.00

@<SCITEGIC>ATOM_PROPERTY
pdb_occupancy
SciTegic.value.DoubleValue
1 1.00
2 1.00
3 1.00
4 1.00
5 1.00
6 1.00
7 1.00
8 1.00
9 1.00
10 1.00
11 1.00
12 1.00
13 1.00
14 1.00
15 1.00
16 1.00
17 1.00
18 1.00
19 1.00
20 1.00
21 1.00
22 1.00
23 1.00
24 1.00
25 1.00
26 1.00
27 1.00
28 1.00
29 1.00

#	Copyright 2023 drugdesign.org
#	Creation time:	2024-01-11T10:51:55Z

@<SCITEGIC>ROOT_PROPERTY
Ligand:MaximumNumberOfAtoms
SciTegic.value.IntegerValue
100

@<SCITEGIC>ROOT_PROPERTY
Ligand:HydrogenAtomsCountTowardsMaximum
SciTegic.value.BooleanValue
FALSE

@<TRIPOS>MOLECULE
staurosporine
   37    44     0 0 0
SMALL
USER_CHARGES


@<TRIPOS>ATOM
      1 H1           -0.695626    3.958011   -1.146518 H        1 SUBUNIT    0.1500
      2 N2           -0.334826    3.164111   -0.899218 N.am     1 SUBUNIT   -0.3071
      3 C3           -1.099826    2.170311   -0.385518 C.2      1 SUBUNIT    0.2442
      4 C4           -0.119026    1.112213   -0.036118 C.ar     1 SUBUNIT    0.0521
      5 C5            1.165474    1.531413   -0.413618 C.ar     1 SUBUNIT   -0.0080
      6 C6            1.122674    2.921211   -1.035418 C.3      1 SUBUNIT    0.1417
      7 O7           -2.322628    2.233311   -0.275618 O.2      1 SUBUNIT   -0.2719
      8 C8           -0.292926   -0.156187    0.577882 C.ar     1 SUBUNIT    0.0164
      9 C9            0.834374   -0.971188    0.774982 C.ar     1 SUBUNIT    0.0522
     10 C10           2.126373   -0.553687    0.387282 C.ar     1 SUBUNIT    0.0521
     11 C11           2.288972    0.706212   -0.202018 C.ar     1 SUBUNIT    0.0091
     12 C12           3.662172    0.882112   -0.467318 C.ar     1 SUBUNIT    0.0023
     13 C13           4.355773   -0.257787   -0.040818 C.ar     1 SUBUNIT    0.0325
     14 N14           3.404472   -1.253787    0.501882 N.ar     1 SUBUNIT   -0.2102
     15 C15           4.332173    1.978711   -1.043718 C.ar     1 SUBUNIT    0.0103
     16 C16           5.736873    1.917512   -1.179318 C.ar     1 SUBUNIT    0.0008
     17 C17           6.447973    0.781812   -0.742318 C.ar     1 SUBUNIT    0.0017
     18 C18           5.761273   -0.310887   -0.165418 C.ar     1 SUBUNIT    0.0211
     19 N19           0.459574   -2.216089    1.403582 N.ar     1 SUBUNIT   -0.2149
     20 C20          -0.982226   -2.115488    1.570082 C.ar     1 SUBUNIT    0.0322
     21 C21          -1.425026   -0.873588    1.084982 C.ar     1 SUBUNIT    0.0027
     22 C22          -2.793528   -0.540787    1.153382 C.ar     1 SUBUNIT    0.0103
     23 C23          -3.693328   -1.479387    1.711082 C.ar     1 SUBUNIT    0.0008
     24 C24          -3.242328   -2.726389    2.189981 C.ar     1 SUBUNIT    0.0017
     25 C25          -1.872427   -3.057589    2.123381 C.ar     1 SUBUNIT    0.0211
     26 C26           1.304674   -3.374389    1.651082 C.3      1 SUBUNIT    0.2014
     27 O27           2.463772   -3.491189    0.773482 O.3      1 SUBUNIT   -0.3381
     28 C28           3.610972   -2.622689    1.055782 C.3      1 SUBUNIT    0.1566
     29 C29           1.677974   -3.562189    3.157681 C.3      1 SUBUNIT    0.0709
     30 C30           3.212072   -3.726089    3.376781 C.3      1 SUBUNIT    0.0904
     31 C31           3.945972   -2.577089    2.607381 C.3      1 SUBUNIT    0.1821
     32 C32           4.725574   -3.403389    0.292882 C.3      1 SUBUNIT    0.0642
     33 N33           3.619772   -3.806189    4.822886 N.3      1 SUBUNIT   -0.3142
     34 H34           4.577573   -3.858389    4.872286 H        1 SUBUNIT    0.1223
     35 C35           3.056972   -4.987388    5.538986 C.3      1 SUBUNIT    0.1013
     36 O36           3.671072   -1.273687    3.201381 O.3      1 SUBUNIT   -0.3753
     37 C37           4.741973   -0.765688    4.043582 C.3      1 SUBUNIT    0.1951
@<TRIPOS>BOND
     1    1    2 1
     2    2    3 1
     3    2    6 1
     4    3    4 1
     5    3    7 2
     6    4    5 ar
     7    4    8 ar
     8    5    6 1
     9    5   11 ar
    10    8    9 ar
    11    8   21 ar
    12    9   10 ar
    13    9   19 ar
    14   10   11 ar
    15   10   14 ar
    16   11   12 ar
    17   12   13 ar
    18   12   15 ar
    19   13   14 ar
    20   13   18 ar
    21   14   28 1
    22   15   16 ar
    23   16   17 ar
    24   17   18 ar
    25   19   20 ar
    26   19   26 1
    27   20   21 ar
    28   20   25 ar
    29   21   22 ar
    30   22   23 ar
    31   23   24 ar
    32   24   25 ar
    33   26   27 1
    34   26   29 1
    35   27   28 1
    36   28   31 1
    37   28   32 1
    38   29   30 1
    39   30   31 1
    40   30   33 1
    41   31   36 1
    42   33   34 1
    43   33   35 1
    44   36   37 1
@<SCITEGIC>ATOM_PROPERTY
Formal Charge
SciTegic.value.StringValue
1 0
2 0
3 0
4 0
5 0
6 0
7 0
8 0
9 0
10 0
11 0
12 0
13 0
14 0
15 0
16 0
17 0
18 0
19 0
20 0
21 0
22 0
23 0
24 0
25 0
26 0
27 0
28 0
29 0
30 0
31 0
32 0
33 0
34 0
35 0
36 0
37 0

@<SCITEGIC>ATOM_PROPERTY
pdb_tempFactor
SciTegic.value.DoubleValue
1 0.00
2 0.00
3 0.00
4 0.00
5 0.00
6 0.00
7 0.00
8 0.00
9 0.00
10 0.00
11 0.00
12 0.00
13 0.00
14 0.00
15 0.00
16 0.00
17 0.00
18 0.00
19 0.00
20 0.00
21 0.00
22 0.00
23 0.00
24 0.00
25 0.00
26 0.00
27 0.00
28 0.00
29 0.00
30 0.00
31 0.00
32 0.00
33 0.00
34 0.00
35 0.00
36 0.00
37 0.00

@<SCITEGIC>ATOM_PROPERTY
pdb_occupancy
SciTegic.value.DoubleValue
1 1.00
2 1.00
3 1.00
4 1.00
5 1.00
6 1.00
7 1.00
8 1.00
9 1.00
10 1.00
11 1.00
12 1.00
13 1.00
14 1.00
15 1.00
16 1.00
17 1.00
18 1.00
19 1.00
20 1.00
21 1.00
22 1.00
23 1.00
24 1.00
25 1.00
26 1.00
27 1.00
28 1.00
29 1.00
30 1.00
31 1.00
32 1.00
33 1.00
34 1.00
35 1.00
36 1.00
37 1.00

#	Copyright 2023 drugdesign.org
#	Creation time:	2024-01-11T10:51:55Z

@<SCITEGIC>ROOT_PROPERTY
Ligand:MaximumNumberOfAtoms
SciTegic.value.IntegerValue
100

@<SCITEGIC>ROOT_PROPERTY
Ligand:HydrogenAtomsCountTowardsMaximum
SciTegic.value.BooleanValue
FALSE

@<TRIPOS>MOLECULE
staurosporine
   29    31     0 0 0
SMALL
USER_CHARGES


@<TRIPOS>ATOM
      1 H1          -11.707929    0.405253    1.835082 H        1 SUBUNIT    0.1593
      2 N2          -11.302466   -0.465308    2.113873 N.am     1 SUBUNIT   -0.2475
      3 C3          -12.067467   -1.459109    2.627573 C.2      1 SUBUNIT    0.2505
      4 C4          -11.086666   -2.517207    2.976972 C.ar     1 SUBUNIT    0.0517
      5 C5           -9.802163   -2.098007    2.599473 C.ar     1 SUBUNIT    0.0517
      6 C6           -9.844964   -0.708208    1.977672 C.2      1 SUBUNIT    0.2505
      7 O7          -13.290270   -1.396108    2.737473 O.2      1 SUBUNIT   -0.2714
      8 C8          -11.260567   -3.785607    3.590973 C.ar     1 SUBUNIT    0.0360
      9 C9          -10.133265   -4.600606    3.788073 C.ar     1 SUBUNIT    0.0383
     10 C10          -8.841265   -4.183105    3.400372 C.ar     1 SUBUNIT    0.0383
     11 C11          -8.678665   -2.923208    2.811073 C.ar     1 SUBUNIT    0.0360
     12 C12          -6.257758   -3.219298    4.518520 C.ar     1 SUBUNIT   -0.0439
     13 C13          -6.381115   -4.376386    3.738585 C.ar     1 SUBUNIT    0.0189
     14 N14          -7.563152   -4.883204    3.514972 N.pl3    1 SUBUNIT   -0.2576
     15 C15          -5.015774   -2.578630    4.693686 C.ar     1 SUBUNIT    0.0016
     16 C16          -3.875461   -3.132625    4.070716 C.ar     1 SUBUNIT    0.0001
     17 C17          -3.983766   -4.303746    3.294055 C.ar     1 SUBUNIT    0.0016
     18 C18          -5.237391   -4.935531    3.127831 C.ar     1 SUBUNIT    0.0201
     19 N19         -10.508066   -5.845505    4.416674 N.pl3    1 SUBUNIT   -0.2576
     20 C20         -11.656775   -6.136273    5.525281 C.ar     1 SUBUNIT    0.0189
     21 C21         -12.872879   -5.471515    5.295273 C.ar     1 SUBUNIT   -0.0439
     22 C22         -13.937417   -5.619779    6.207965 C.ar     1 SUBUNIT    0.0016
     23 C23         -13.750340   -6.446772    7.340533 C.ar     1 SUBUNIT    0.0001
     24 C24         -12.529107   -7.115828    7.561224 C.ar     1 SUBUNIT    0.0016
     25 C25         -11.463576   -6.964957    6.648715 C.ar     1 SUBUNIT    0.0201
     26 H26          -9.982863   -6.645404    4.126289 H        1 SUBUNIT    0.1343
     27 H27          -7.598847   -5.876881    3.408520 H        1 SUBUNIT    0.1343
     28 O58          -8.939273    0.024159    1.490862 O.2      1 SUBUNIT   -0.2714
     29 H62          -6.038550   -7.505918    4.795636 H        1 SUBUNIT    0.0000
@<TRIPOS>BOND
     1    1    2 1
     2    2    3 1
     3    2    6 1
     4    3    4 1
     5    3    7 2
     6    4    5 ar
     7    4    8 ar
     8    5    6 1
     9    5   11 ar
    10    8    9 ar
    11    9   10 ar
    12    9   19 1
    13   10   11 ar
    14   10   14 1
    15   12   13 ar
    16   12   15 ar
    17   13   14 1
    18   13   18 ar
    19   14   27 1
    20   15   16 ar
    21   16   17 ar
    22   17   18 ar
    23   19   20 1
    24   19   26 1
    25   20   21 ar
    26   20   25 ar
    27   21   22 ar
    28   22   23 ar
    29   23   24 ar
    30   24   25 ar
    31    6   28 2
@<SCITEGIC>ATOM_PROPERTY
Formal Charge
SciTegic.value.StringValue
1 0
2 0
3 0
4 0
5 0
6 0
7 0
8 0
9 0
10 0
11 0
12 0
13 0
14 0
15 0
16 0
17 0
18 0
19 0
20 0
21 0
22 0
23 0
24 0
25 0
26 0
27 0
28 0
29 0

@<SCITEGIC>ATOM_PROPERTY
pdb_tempFactor
SciTegic.value.DoubleValue
1 0.00
2 0.00
3 0.00
4 0.00
5 0.00
6 0.00
7 0.00
8 0.00
9 0.00
10 0.00
11 0.00
12 0.00
13 0.00
14 0.00
15 0.00
16 0.00
17 0.00
18 0.00
19 0.00
20 0.00
21 0.00
22 0.00
23 0.00
24 0.00
25 0.00
26 0.00
27 0.00
28 0.00
29 0.00

@<SCITEGIC>ATOM_PROPERTY
pdb_occupancy
SciTegic.value.DoubleValue
1 1.00
2 1.00
3 1.00
4 1.00
5 1.00
6 1.00
7 1.00
8 1.00
9 1.00
10 1.00
11 1.00
12 1.00
13 1.00
14 1.00
15 1.00
16 1.00
17 1.00
18 1.00
19 1.00
20 1.00
21 1.00
22 1.00
23 1.00
24 1.00
25 1.00
26 1.00
27 1.00
28 1.00
29 1.00

#	Copyright 2023 drugdesign.org
#	Creation time:	2024-01-11T10:51:55Z

@<SCITEGIC>ROOT_PROPERTY
Ligand:MaximumNumberOfAtoms
SciTegic.value.IntegerValue
100

@<SCITEGIC>ROOT_PROPERTY
Ligand:HydrogenAtomsCountTowardsMaximum
SciTegic.value.BooleanValue
FALSE

@<TRIPOS>MOLECULE
staurosporine
   37    44     0 0 0
SMALL
USER_CHARGES


@<TRIPOS>ATOM
      1 H1           -0.695626    3.958011   -1.146518 H        1 SUBUNIT    0.1500
      2 N2           -0.334826    3.164111   -0.899218 N.am     1 SUBUNIT   -0.3071
      3 C3           -1.099826    2.170311   -0.385518 C.2      1 SUBUNIT    0.2442
      4 C4           -0.119026    1.112213   -0.036118 C.ar     1 SUBUNIT    0.0521
      5 C5            1.165474    1.531413   -0.413618 C.ar     1 SUBUNIT   -0.0080
      6 C6            1.122674    2.921211   -1.035418 C.3      1 SUBUNIT    0.1417
      7 O7           -2.322628    2.233311   -0.275618 O.2      1 SUBUNIT   -0.2719
      8 C8           -0.292926   -0.156187    0.577882 C.ar     1 SUBUNIT    0.0164
      9 C9            0.834374   -0.971188    0.774982 C.ar     1 SUBUNIT    0.0522
     10 C10           2.126373   -0.553687    0.387282 C.ar     1 SUBUNIT    0.0521
     11 C11           2.288972    0.706212   -0.202018 C.ar     1 SUBUNIT    0.0091
     12 C12           3.662172    0.882112   -0.467318 C.ar     1 SUBUNIT    0.0023
     13 C13           4.355773   -0.257787   -0.040818 C.ar     1 SUBUNIT    0.0325
     14 N14           3.404472   -1.253787    0.501882 N.ar     1 SUBUNIT   -0.2102
     15 C15           4.332173    1.978711   -1.043718 C.ar     1 SUBUNIT    0.0103
     16 C16           5.736873    1.917512   -1.179318 C.ar     1 SUBUNIT    0.0008
     17 C17           6.447973    0.781812   -0.742318 C.ar     1 SUBUNIT    0.0017
     18 C18           5.761273   -0.310887   -0.165418 C.ar     1 SUBUNIT    0.0211
     19 N19           0.459574   -2.216089    1.403582 N.ar     1 SUBUNIT   -0.2149
     20 C20          -0.982226   -2.115488    1.570082 C.ar     1 SUBUNIT    0.0322
     21 C21          -1.425026   -0.873588    1.084982 C.ar     1 SUBUNIT    0.0027
     22 C22          -2.793528   -0.540787    1.153382 C.ar     1 SUBUNIT    0.0103
     23 C23          -3.693328   -1.479387    1.711082 C.ar     1 SUBUNIT    0.0008
     24 C24          -3.242328   -2.726389    2.189981 C.ar     1 SUBUNIT    0.0017
     25 C25          -1.872427   -3.057589    2.123381 C.ar     1 SUBUNIT    0.0211
     26 C26           1.304674   -3.374389    1.651082 C.3      1 SUBUNIT    0.2014
     27 O27           2.463772   -3.491189    0.773482 O.3      1 SUBUNIT   -0.3381
     28 C28           3.610972   -2.622689    1.055782 C.3      1 SUBUNIT    0.1566
     29 C29           1.677974   -3.562189    3.157681 C.3      1 SUBUNIT    0.0709
     30 C30           3.212072   -3.726089    3.376781 C.3      1 SUBUNIT    0.0904
     31 C31           3.945972   -2.577089    2.607381 C.3      1 SUBUNIT    0.1821
     32 C32           4.725574   -3.403389    0.292882 C.3      1 SUBUNIT    0.0642
     33 N33           3.619772   -3.806189    4.822886 N.3      1 SUBUNIT   -0.3142
     34 H34           4.577573   -3.858389    4.872286 H        1 SUBUNIT    0.1223
     35 C35           3.056972   -4.987388    5.538986 C.3      1 SUBUNIT    0.1013
     36 O36           3.671072   -1.273687    3.201381 O.3      1 SUBUNIT   -0.3753
     37 C37           4.741973   -0.765688    4.043582 C.3      1 SUBUNIT    0.1951
@<TRIPOS>BOND
     1    1    2 1
     2    2    3 1
     3    2    6 1
     4    3    4 1
     5    3    7 2
     6    4    5 ar
     7    4    8 ar
     8    5    6 1
     9    5   11 ar
    10    8    9 ar
    11    8   21 ar
    12    9   10 ar
    13    9   19 ar
    14   10   11 ar
    15   10   14 ar
    16   11   12 ar
    17   12   13 ar
    18   12   15 ar
    19   13   14 ar
    20   13   18 ar
    21   14   28 1
    22   15   16 ar
    23   16   17 ar
    24   17   18 ar
    25   19   20 ar
    26   19   26 1
    27   20   21 ar
    28   20   25 ar
    29   21   22 ar
    30   22   23 ar
    31   23   24 ar
    32   24   25 ar
    33   26   27 1
    34   26   29 1
    35   27   28 1
    36   28   31 1
    37   28   32 1
    38   29   30 1
    39   30   31 1
    40   30   33 1
    41   31   36 1
    42   33   34 1
    43   33   35 1
    44   36   37 1
@<SCITEGIC>ATOM_PROPERTY
Formal Charge
SciTegic.value.StringValue
1 0
2 0
3 0
4 0
5 0
6 0
7 0
8 0
9 0
10 0
11 0
12 0
13 0
14 0
15 0
16 0
17 0
18 0
19 0
20 0
21 0
22 0
23 0
24 0
25 0
26 0
27 0
28 0
29 0
30 0
31 0
32 0
33 0
34 0
35 0
36 0
37 0

@<SCITEGIC>ATOM_PROPERTY
pdb_tempFactor
SciTegic.value.DoubleValue
1 0.00
2 0.00
3 0.00
4 0.00
5 0.00
6 0.00
7 0.00
8 0.00
9 0.00
10 0.00
11 0.00
12 0.00
13 0.00
14 0.00
15 0.00
16 0.00
17 0.00
18 0.00
19 0.00
20 0.00
21 0.00
22 0.00
23 0.00
24 0.00
25 0.00
26 0.00
27 0.00
28 0.00
29 0.00
30 0.00
31 0.00
32 0.00
33 0.00
34 0.00
35 0.00
36 0.00
37 0.00

@<SCITEGIC>ATOM_PROPERTY
pdb_occupancy
SciTegic.value.DoubleValue
1 1.00
2 1.00
3 1.00
4 1.00
5 1.00
6 1.00
7 1.00
8 1.00
9 1.00
10 1.00
11 1.00
12 1.00
13 1.00
14 1.00
15 1.00
16 1.00
17 1.00
18 1.00
19 1.00
20 1.00
21 1.00
22 1.00
23 1.00
24 1.00
25 1.00
26 1.00
27 1.00
28 1.00
29 1.00
30 1.00
31 1.00
32 1.00
33 1.00
34 1.00
35 1.00
36 1.00
37 1.00

#	Copyright 2023 drugdesign.org
#	Creation time:	2024-01-11T10:51:55Z

@<SCITEGIC>ROOT_PROPERTY
Ligand:MaximumNumberOfAtoms
SciTegic.value.IntegerValue
100

@<SCITEGIC>ROOT_PROPERTY
Ligand:HydrogenAtomsCountTowardsMaximum
SciTegic.value.BooleanValue
FALSE

@<TRIPOS>MOLECULE
staurosporine
   29    31     0 0 0
SMALL
USER_CHARGES


@<TRIPOS>ATOM
      1 H1          -11.707929    0.405253    1.835082 H        1 SUBUNIT    0.1593
      2 N2          -11.302466   -0.465308    2.113873 N.am     1 SUBUNIT   -0.2475
      3 C3          -12.067467   -1.459109    2.627573 C.2      1 SUBUNIT    0.2505
      4 C4          -11.086666   -2.517207    2.976972 C.ar     1 SUBUNIT    0.0517
      5 C5           -9.802163   -2.098007    2.599473 C.ar     1 SUBUNIT    0.0517
      6 C6           -9.844964   -0.708208    1.977672 C.2      1 SUBUNIT    0.2505
      7 O7          -13.290270   -1.396108    2.737473 O.2      1 SUBUNIT   -0.2714
      8 C8          -11.260567   -3.785607    3.590973 C.ar     1 SUBUNIT    0.0360
      9 C9          -10.133265   -4.600606    3.788073 C.ar     1 SUBUNIT    0.0383
     10 C10          -8.841265   -4.183105    3.400372 C.ar     1 SUBUNIT    0.0383
     11 C11          -8.678665   -2.923208    2.811073 C.ar     1 SUBUNIT    0.0360
     12 C12          -6.257758   -3.219298    4.518520 C.ar     1 SUBUNIT   -0.0439
     13 C13          -6.381115   -4.376386    3.738585 C.ar     1 SUBUNIT    0.0189
     14 N14          -7.563152   -4.883204    3.514972 N.pl3    1 SUBUNIT   -0.2576
     15 C15          -5.015774   -2.578630    4.693686 C.ar     1 SUBUNIT    0.0016
     16 C16          -3.875461   -3.132625    4.070716 C.ar     1 SUBUNIT    0.0001
     17 C17          -3.983766   -4.303746    3.294055 C.ar     1 SUBUNIT    0.0016
     18 C18          -5.237391   -4.935531    3.127831 C.ar     1 SUBUNIT    0.0201
     19 N19         -10.508066   -5.845505    4.416674 N.pl3    1 SUBUNIT   -0.2576
     20 C20         -11.656775   -6.136273    5.525281 C.ar     1 SUBUNIT    0.0189
     21 C21         -12.872879   -5.471515    5.295273 C.ar     1 SUBUNIT   -0.0439
     22 C22         -13.937417   -5.619779    6.207965 C.ar     1 SUBUNIT    0.0016
     23 C23         -13.750340   -6.446772    7.340533 C.ar     1 SUBUNIT    0.0001
     24 C24         -12.529107   -7.115828    7.561224 C.ar     1 SUBUNIT    0.0016
     25 C25         -11.463576   -6.964957    6.648715 C.ar     1 SUBUNIT    0.0201
     26 H26          -9.982863   -6.645404    4.126289 H        1 SUBUNIT    0.1343
     27 H27          -7.598847   -5.876881    3.408520 H        1 SUBUNIT    0.1343
     28 O58          -8.939273    0.024159    1.490862 O.2      1 SUBUNIT   -0.2714
     29 H60          -6.038550   -7.505918    4.795636 H        1 SUBUNIT    0.0000
@<TRIPOS>BOND
     1    1    2 1
     2    2    3 1
     3    2    6 1
     4    3    4 1
     5    3    7 2
     6    4    5 ar
     7    4    8 ar
     8    5    6 1
     9    5   11 ar
    10    8    9 ar
    11    9   10 ar
    12    9   19 1
    13   10   11 ar
    14   10   14 1
    15   12   13 ar
    16   12   15 ar
    17   13   14 1
    18   13   18 ar
    19   14   27 1
    20   15   16 ar
    21   16   17 ar
    22   17   18 ar
    23   19   20 1
    24   19   26 1
    25   20   21 ar
    26   20   25 ar
    27   21   22 ar
    28   22   23 ar
    29   23   24 ar
    30   24   25 ar
    31    6   28 2
@<SCITEGIC>ATOM_PROPERTY
Formal Charge
SciTegic.value.StringValue
1 0
2 0
3 0
4 0
5 0
6 0
7 0
8 0
9 0
10 0
11 0
12 0
13 0
14 0
15 0
16 0
17 0
18 0
19 0
20 0
21 0
22 0
23 0
24 0
25 0
26 0
27 0
28 0
29 0

@<SCITEGIC>ATOM_PROPERTY
pdb_tempFactor
SciTegic.value.DoubleValue
1 0.00
2 0.00
3 0.00
4 0.00
5 0.00
6 0.00
7 0.00
8 0.00
9 0.00
10 0.00
11 0.00
12 0.00
13 0.00
14 0.00
15 0.00
16 0.00
17 0.00
18 0.00
19 0.00
20 0.00
21 0.00
22 0.00
23 0.00
24 0.00
25 0.00
26 0.00
27 0.00
28 0.00
29 0.00

@<SCITEGIC>ATOM_PROPERTY
pdb_occupancy
SciTegic.value.DoubleValue
1 1.00
2 1.00
3 1.00
4 1.00
5 1.00
6 1.00
7 1.00
8 1.00
9 1.00
10 1.00
11 1.00
12 1.00
13 1.00
14 1.00
15 1.00
16 1.00
17 1.00
18 1.00
19 1.00
20 1.00
21 1.00
22 1.00
23 1.00
24 1.00
25 1.00
26 1.00
27 1.00
28 1.00
29 1.00

