#	Copyright 2023 drugdesign.org
#	Creation time:	2024-01-11T10:52:05Z

@<SCITEGIC>ROOT_PROPERTY
Ligand:MaximumNumberOfAtoms
SciTegic.value.IntegerValue
100

@<SCITEGIC>ROOT_PROPERTY
Ligand:HydrogenAtomsCountTowardsMaximum
SciTegic.value.BooleanValue
FALSE

@<TRIPOS>MOLECULE
ester_faux.sd
   24    24     0 0 0
SMALL
USER_CHARGES


@<TRIPOS>ATOM
      1 O1            0.000000    0.000000    0.000000 O.2      1 SUBUNIT   -0.2987
      2 C2            1.221500    0.000000    0.000000 C.2      1 SUBUNIT    0.1471
      3 C3            2.001400    1.303300    0.000000 C.3      1 SUBUNIT    0.0161
      4 C4            2.889300    1.426700   -1.241400 C.3      1 SUBUNIT    0.0002
      5 S5            4.046600    0.058700   -1.436100 S.3      1 SUBUNIT   -0.1602
      6 C6            2.878900   -1.323500   -1.345500 C.3      1 SUBUNIT    0.0126
      7 C7            2.050500   -1.295100   -0.042400 C.3      1 SUBUNIT    0.1126
      8 C8            2.919100   -1.541700    1.210500 C.2      1 SUBUNIT    0.2723
      9 O9            4.131800   -1.633500    1.097900 O.2      1 SUBUNIT   -0.2657
     10 O10           2.435600   -1.680900    2.439000 O.3      1 SUBUNIT   -0.3157
     11 C11           1.020000   -1.673100    2.672400 C.3      1 SUBUNIT    0.0535
     12 C12           0.678000   -1.992800    4.132900 C.3      1 SUBUNIT   -0.0409
     13 H13           1.056800   -2.998900    4.400900 H        1 SUBUNIT    0.0254
     14 H14           1.142600   -1.244500    4.805000 H        1 SUBUNIT    0.0254
     15 H15          -0.420100   -1.972800    4.279600 H        1 SUBUNIT    0.0254
     16 H16           2.624900    1.366000    0.913700 H        1 SUBUNIT    0.0355
     17 H17           1.299300    2.159300    0.044300 H        1 SUBUNIT    0.0355
     18 H18           3.452200    2.380000   -1.196600 H        1 SUBUNIT    0.0385
     19 H19           2.250500    1.498300   -2.143900 H        1 SUBUNIT    0.0385
     20 H20           3.430100   -2.282100   -1.415700 H        1 SUBUNIT    0.0393
     21 H21           2.199000   -1.294700   -2.219900 H        1 SUBUNIT    0.0393
     22 H22           1.330500   -2.135200   -0.102800 H        1 SUBUNIT    0.0500
     23 H23           0.528400   -2.408400    2.005100 H        1 SUBUNIT    0.0570
     24 H24           0.603000   -0.683300    2.400100 H        1 SUBUNIT    0.0570
@<TRIPOS>BOND
     1    1    2 2
     2    2    3 1
     3    2    7 1
     4    3    4 1
     5    3   16 1
     6    3   17 1
     7    4    5 1
     8    4   18 1
     9    4   19 1
    10    5    6 1
    11    6    7 1
    12    6   20 1
    13    6   21 1
    14    7    8 1
    15    7   22 1
    16    8    9 2
    17    8   10 1
    18   10   11 1
    19   11   12 1
    20   11   23 1
    21   11   24 1
    22   12   13 1
    23   12   14 1
    24   12   15 1
@<SCITEGIC>ATOM_PROPERTY
Formal Charge
SciTegic.value.StringValue
1 0
2 0
3 0
4 0
5 0
6 0
7 0
8 0
9 0
10 0
11 0
12 0
13 0
14 0
15 0
16 0
17 0
18 0
19 0
20 0
21 0
22 0
23 0
24 0

@<SCITEGIC>ATOM_PROPERTY
pdb_tempFactor
SciTegic.value.DoubleValue
1 0.00
2 0.00
3 0.00
4 0.00
5 0.00
6 0.00
7 0.00
8 0.00
9 0.00
10 0.00
11 0.00
12 0.00
13 0.00
14 0.00
15 0.00
16 0.00
17 0.00
18 0.00
19 0.00
20 0.00
21 0.00
22 0.00
23 0.00
24 0.00

@<SCITEGIC>ATOM_PROPERTY
pdb_occupancy
SciTegic.value.DoubleValue
1 1.00
2 1.00
3 1.00
4 1.00
5 1.00
6 1.00
7 1.00
8 1.00
9 1.00
10 1.00
11 1.00
12 1.00
13 1.00
14 1.00
15 1.00
16 1.00
17 1.00
18 1.00
19 1.00
20 1.00
21 1.00
22 1.00
23 1.00
24 1.00

