#	Copyright 2023 drugdesign.org
#	Creation time:	2024-01-11T10:51:44Z

@<SCITEGIC>ROOT_PROPERTY
Ligand:MaximumNumberOfAtoms
SciTegic.value.IntegerValue
100

@<SCITEGIC>ROOT_PROPERTY
Ligand:HydrogenAtomsCountTowardsMaximum
SciTegic.value.BooleanValue
FALSE

@<TRIPOS>MOLECULE
Molecule
   27    30     0 0 0
SMALL
USER_CHARGES


@<TRIPOS>ATOM
      1 C28          -1.118470    9.692985    3.006008 C.3      1 SUBUNIT    0.0136
      2 C27          -2.341076   11.577109    4.140071 C.3      1 SUBUNIT    0.0136
      3 C26          -3.358415   10.434621    2.143767 C.3      1 SUBUNIT    0.0136
      4 C25          -2.039011   10.908110    2.778277 C.3      1 SUBUNIT   -0.0092
      5 C24          -3.669339   15.031240    0.063017 C.ar     1 SUBUNIT    0.0003
      6 O23          -1.025553   11.318194    0.589473 O.3      1 SUBUNIT   -0.1783
      7 C22           0.661066   13.472831    1.686376 C.3      1 SUBUNIT    0.0872
      8 C21          -0.031505   12.394717    2.536307 C.3      1 SUBUNIT    0.0511
      9 C20          -1.329152   11.928718    1.849569 C.3      1 SUBUNIT    0.0721
     10 C19          -2.231905   13.147965    1.603452 C.3      1 SUBUNIT    0.0511
     11 C18          -1.447542   14.213746    0.791545 C.3      1 SUBUNIT    0.0872
     12 N17          -0.247330   14.633111    1.542226 N.3      1 SUBUNIT   -0.3021
     13 C16           0.443493   15.714744    0.875997 C.3      1 SUBUNIT    0.0972
     14 C15          -0.472610   16.952337    0.877566 C.3      1 SUBUNIT    0.0638
     15 C14           0.724001   20.494678   -0.110081 C.ar     1 SUBUNIT    0.0038
     16 C13           1.939747   20.539362    0.555790 C.ar     1 SUBUNIT    0.0003
     17 C12           2.345600   19.441078    1.297710 C.ar     1 SUBUNIT    0.0003
     18 C11           1.533338   18.315905    1.360311 C.ar     1 SUBUNIT    0.0045
     19 C10           0.305351   18.263067    0.704812 C.ar     1 SUBUNIT   -0.0359
     20 C09          -0.096525   19.373791   -0.037317 C.ar     1 SUBUNIT   -0.0437
     21 C08          -1.354833   19.462294   -0.776293 C.3      1 SUBUNIT    0.0403
     22 C07          -2.539138   19.113743    0.081569 C.3      1 SUBUNIT    0.0403
     23 C06          -2.363122   15.353702    0.422591 C.ar     1 SUBUNIT    0.0045
     24 C05          -1.925283   16.682314    0.437736 C.ar     1 SUBUNIT   -0.0359
     25 C04          -2.841324   17.679169    0.096192 C.ar     1 SUBUNIT   -0.0437
     26 C03          -4.144961   17.347513   -0.254064 C.ar     1 SUBUNIT    0.0038
     27 C02          -4.566475   16.028877   -0.278177 C.ar     1 SUBUNIT    0.0003
@<TRIPOS>BOND
     1    9    4 1
     2    1    4 1
     3    2    4 1
     4    3    4 1
     5    6    9 1
     6    8    7 1
     7    8    9 1
     8   10    9 1
     9   11   10 1
    10   12    7 1
    11   12   11 1
    12   13   12 1
    13   14   13 1
    14   16   15 ar
    15   17   16 ar
    16   18   17 ar
    17   19   14 1
    18   19   18 ar
    19   20   19 ar
    20   20   15 ar
    21   21   20 1
    22   22   21 1
    23   23    5 ar
    24   24   14 1
    25   24   23 ar
    26   25   24 ar
    27   25   22 1
    28   26   25 ar
    29   27   26 ar
    30   27    5 ar
@<SCITEGIC>ATOM_PROPERTY
Formal Charge
SciTegic.value.StringValue
1 0
2 0
3 0
4 0
5 0
6 0
7 0
8 0
9 0
10 0
11 0
12 0
13 0
14 0
15 0
16 0
17 0
18 0
19 0
20 0
21 0
22 0
23 0
24 0
25 0
26 0
27 0

@<SCITEGIC>ATOM_PROPERTY
pdb_tempFactor
SciTegic.value.DoubleValue
1 0.00
2 0.00
3 0.00
4 0.00
5 0.00
6 0.00
7 0.00
8 0.00
9 0.00
10 0.00
11 0.00
12 0.00
13 0.00
14 0.00
15 0.00
16 0.00
17 0.00
18 0.00
19 0.00
20 0.00
21 0.00
22 0.00
23 0.00
24 0.00
25 0.00
26 0.00
27 0.00

@<SCITEGIC>ATOM_PROPERTY
pdb_occupancy
SciTegic.value.DoubleValue
1 1.00
2 1.00
3 1.00
4 1.00
5 1.00
6 1.00
7 1.00
8 1.00
9 1.00
10 1.00
11 1.00
12 1.00
13 1.00
14 1.00
15 1.00
16 1.00
17 1.00
18 1.00
19 1.00
20 1.00
21 1.00
22 1.00
23 1.00
24 1.00
25 1.00
26 1.00
27 1.00

#	Copyright 2023 drugdesign.org
#	Creation time:	2024-01-11T10:51:44Z

@<SCITEGIC>ROOT_PROPERTY
Ligand:MaximumNumberOfAtoms
SciTegic.value.IntegerValue
100

@<SCITEGIC>ROOT_PROPERTY
Ligand:HydrogenAtomsCountTowardsMaximum
SciTegic.value.BooleanValue
FALSE

@<TRIPOS>MOLECULE
Molecule
   27    30     0 0 0
SMALL
USER_CHARGES


@<TRIPOS>ATOM
      1 C28           0.194592   10.662326    5.077113 C.3      1 SUBUNIT    0.0136
      2 C27          -0.602664   12.861570    6.003665 C.3      1 SUBUNIT    0.0136
      3 C26          -2.244507   11.255574    4.978667 C.3      1 SUBUNIT    0.0136
      4 C25          -0.813231   11.812797    4.886068 C.3      1 SUBUNIT   -0.0092
      5 C24          -3.669339   15.031240    0.063017 C.ar     1 SUBUNIT    0.0003
      6 O23          -0.755177   11.515965    2.458178 O.3      1 SUBUNIT   -0.1783
      7 C22           1.092477   13.791593    2.145065 C.3      1 SUBUNIT    0.0872
      8 C21           0.850003   13.046053    3.467845 C.3      1 SUBUNIT    0.0511
      9 C20          -0.581981   12.479697    3.504112 C.3      1 SUBUNIT    0.0721
     10 C19          -1.580827   13.627775    3.288877 C.3      1 SUBUNIT    0.0511
     11 C18          -1.238438   14.367041    1.967301 C.3      1 SUBUNIT    0.0872
     12 N17           0.131548   14.912937    2.038247 N.3      1 SUBUNIT   -0.3021
     13 C16           0.443493   15.714744    0.875997 C.3      1 SUBUNIT    0.0972
     14 C15          -0.472610   16.952337    0.877566 C.3      1 SUBUNIT    0.0638
     15 C14           0.724001   20.494678   -0.110081 C.ar     1 SUBUNIT    0.0038
     16 C13           1.939747   20.539362    0.555790 C.ar     1 SUBUNIT    0.0003
     17 C12           2.345600   19.441078    1.297710 C.ar     1 SUBUNIT    0.0003
     18 C11           1.533338   18.315905    1.360311 C.ar     1 SUBUNIT    0.0045
     19 C10           0.305351   18.263067    0.704812 C.ar     1 SUBUNIT   -0.0359
     20 C09          -0.096525   19.373791   -0.037317 C.ar     1 SUBUNIT   -0.0437
     21 C08          -1.354833   19.462294   -0.776293 C.3      1 SUBUNIT    0.0403
     22 C07          -2.539138   19.113743    0.081569 C.3      1 SUBUNIT    0.0403
     23 C06          -2.363122   15.353702    0.422591 C.ar     1 SUBUNIT    0.0045
     24 C05          -1.925283   16.682314    0.437736 C.ar     1 SUBUNIT   -0.0359
     25 C04          -2.841324   17.679169    0.096192 C.ar     1 SUBUNIT   -0.0437
     26 C03          -4.144961   17.347513   -0.254064 C.ar     1 SUBUNIT    0.0038
     27 C02          -4.566475   16.028877   -0.278177 C.ar     1 SUBUNIT    0.0003
@<TRIPOS>BOND
     1    9    4 1
     2    1    4 1
     3    2    4 1
     4    3    4 1
     5    6    9 1
     6    8    7 1
     7    8    9 1
     8   10    9 1
     9   11   10 1
    10   12    7 1
    11   12   11 1
    12   13   12 1
    13   14   13 1
    14   16   15 ar
    15   17   16 ar
    16   18   17 ar
    17   19   14 1
    18   19   18 ar
    19   20   19 ar
    20   20   15 ar
    21   21   20 1
    22   22   21 1
    23   23    5 ar
    24   24   14 1
    25   24   23 ar
    26   25   24 ar
    27   25   22 1
    28   26   25 ar
    29   27   26 ar
    30   27    5 ar
@<SCITEGIC>ATOM_PROPERTY
Formal Charge
SciTegic.value.StringValue
1 0
2 0
3 0
4 0
5 0
6 0
7 0
8 0
9 0
10 0
11 0
12 0
13 0
14 0
15 0
16 0
17 0
18 0
19 0
20 0
21 0
22 0
23 0
24 0
25 0
26 0
27 0

@<SCITEGIC>ATOM_PROPERTY
pdb_tempFactor
SciTegic.value.DoubleValue
1 0.00
2 0.00
3 0.00
4 0.00
5 0.00
6 0.00
7 0.00
8 0.00
9 0.00
10 0.00
11 0.00
12 0.00
13 0.00
14 0.00
15 0.00
16 0.00
17 0.00
18 0.00
19 0.00
20 0.00
21 0.00
22 0.00
23 0.00
24 0.00
25 0.00
26 0.00
27 0.00

@<SCITEGIC>ATOM_PROPERTY
pdb_occupancy
SciTegic.value.DoubleValue
1 1.00
2 1.00
3 1.00
4 1.00
5 1.00
6 1.00
7 1.00
8 1.00
9 1.00
10 1.00
11 1.00
12 1.00
13 1.00
14 1.00
15 1.00
16 1.00
17 1.00
18 1.00
19 1.00
20 1.00
21 1.00
22 1.00
23 1.00
24 1.00
25 1.00
26 1.00
27 1.00

#	Copyright 2023 drugdesign.org
#	Creation time:	2024-01-11T10:51:45Z

@<SCITEGIC>ROOT_PROPERTY
Ligand:MaximumNumberOfAtoms
SciTegic.value.IntegerValue
100

@<SCITEGIC>ROOT_PROPERTY
Ligand:HydrogenAtomsCountTowardsMaximum
SciTegic.value.BooleanValue
FALSE

@<TRIPOS>MOLECULE
Molecule
   27    30     0 0 0
SMALL
USER_CHARGES


@<TRIPOS>ATOM
      1 C28           1.785267   11.838600    6.015394 C.3      1 SUBUNIT    0.0136
      2 C27           1.242738   14.226844    6.592237 C.3      1 SUBUNIT    0.0136
      3 C26          -0.575363   12.489099    6.576749 C.3      1 SUBUNIT    0.0136
      4 C25           0.723426   12.948999    5.891724 C.3      1 SUBUNIT   -0.0092
      5 C24          -3.669339   15.031240    0.063017 C.ar     1 SUBUNIT    0.0003
      6 O23           0.000154   12.073478    3.724590 O.3      1 SUBUNIT   -0.1783
      7 C22           1.549316   14.129577    2.288308 C.3      1 SUBUNIT    0.0872
      8 C21           1.781774   13.735413    3.756288 C.3      1 SUBUNIT    0.0511
      9 C20           0.464356   13.253100    4.392242 C.3      1 SUBUNIT    0.0721
     10 C19          -0.596781   14.354983    4.244109 C.3      1 SUBUNIT    0.0511
     11 C18          -0.734207   14.739300    2.746203 C.3      1 SUBUNIT    0.0872
     12 N17           0.560397   15.230136    2.233391 N.3      1 SUBUNIT   -0.3021
     13 C16           0.443493   15.714744    0.875997 C.3      1 SUBUNIT    0.0972
     14 C15          -0.472610   16.952337    0.877566 C.3      1 SUBUNIT    0.0638
     15 C14           0.724001   20.494678   -0.110081 C.ar     1 SUBUNIT    0.0038
     16 C13           1.939747   20.539362    0.555790 C.ar     1 SUBUNIT    0.0003
     17 C12           2.345600   19.441078    1.297710 C.ar     1 SUBUNIT    0.0003
     18 C11           1.533338   18.315905    1.360311 C.ar     1 SUBUNIT    0.0045
     19 C10           0.305351   18.263067    0.704812 C.ar     1 SUBUNIT   -0.0359
     20 C09          -0.096525   19.373791   -0.037317 C.ar     1 SUBUNIT   -0.0437
     21 C08          -1.354833   19.462294   -0.776293 C.3      1 SUBUNIT    0.0403
     22 C07          -2.539138   19.113743    0.081569 C.3      1 SUBUNIT    0.0403
     23 C06          -2.363122   15.353702    0.422591 C.ar     1 SUBUNIT    0.0045
     24 C05          -1.925283   16.682314    0.437736 C.ar     1 SUBUNIT   -0.0359
     25 C04          -2.841324   17.679169    0.096192 C.ar     1 SUBUNIT   -0.0437
     26 C03          -4.144961   17.347513   -0.254064 C.ar     1 SUBUNIT    0.0038
     27 C02          -4.566475   16.028877   -0.278177 C.ar     1 SUBUNIT    0.0003
@<TRIPOS>BOND
     1    9    4 1
     2    1    4 1
     3    2    4 1
     4    3    4 1
     5    6    9 1
     6    8    7 1
     7    8    9 1
     8   10    9 1
     9   11   10 1
    10   12    7 1
    11   12   11 1
    12   13   12 1
    13   14   13 1
    14   16   15 ar
    15   17   16 ar
    16   18   17 ar
    17   19   14 1
    18   19   18 ar
    19   20   19 ar
    20   20   15 ar
    21   21   20 1
    22   22   21 1
    23   23    5 ar
    24   24   14 1
    25   24   23 ar
    26   25   24 ar
    27   25   22 1
    28   26   25 ar
    29   27   26 ar
    30   27    5 ar
@<SCITEGIC>ATOM_PROPERTY
Formal Charge
SciTegic.value.StringValue
1 0
2 0
3 0
4 0
5 0
6 0
7 0
8 0
9 0
10 0
11 0
12 0
13 0
14 0
15 0
16 0
17 0
18 0
19 0
20 0
21 0
22 0
23 0
24 0
25 0
26 0
27 0

@<SCITEGIC>ATOM_PROPERTY
pdb_tempFactor
SciTegic.value.DoubleValue
1 0.00
2 0.00
3 0.00
4 0.00
5 0.00
6 0.00
7 0.00
8 0.00
9 0.00
10 0.00
11 0.00
12 0.00
13 0.00
14 0.00
15 0.00
16 0.00
17 0.00
18 0.00
19 0.00
20 0.00
21 0.00
22 0.00
23 0.00
24 0.00
25 0.00
26 0.00
27 0.00

@<SCITEGIC>ATOM_PROPERTY
pdb_occupancy
SciTegic.value.DoubleValue
1 1.00
2 1.00
3 1.00
4 1.00
5 1.00
6 1.00
7 1.00
8 1.00
9 1.00
10 1.00
11 1.00
12 1.00
13 1.00
14 1.00
15 1.00
16 1.00
17 1.00
18 1.00
19 1.00
20 1.00
21 1.00
22 1.00
23 1.00
24 1.00
25 1.00
26 1.00
27 1.00

#	Copyright 2023 drugdesign.org
#	Creation time:	2024-01-11T10:51:45Z

@<SCITEGIC>ROOT_PROPERTY
Ligand:MaximumNumberOfAtoms
SciTegic.value.IntegerValue
100

@<SCITEGIC>ROOT_PROPERTY
Ligand:HydrogenAtomsCountTowardsMaximum
SciTegic.value.BooleanValue
FALSE

@<TRIPOS>MOLECULE
Molecule
   27    30     0 0 0
SMALL
USER_CHARGES


@<TRIPOS>ATOM
      1 C28           2.294297   12.215258    6.126367 C.3      1 SUBUNIT    0.0136
      2 C27           1.801884   14.640756    6.579449 C.3      1 SUBUNIT    0.0136
      3 C26          -0.002691   12.912639    6.866869 C.3      1 SUBUNIT    0.0136
      4 C25           1.221402   13.317446    6.027020 C.3      1 SUBUNIT   -0.0092
      5 C24          -3.669339   15.031240    0.063017 C.ar     1 SUBUNIT    0.0003
      6 O23           0.293420   12.290200    4.009657 O.3      1 SUBUNIT   -0.1783
      7 C22           1.687580   14.231929    2.284446 C.3      1 SUBUNIT    0.0872
      8 C21           2.063547   13.944001    3.747359 C.3      1 SUBUNIT    0.0511
      9 C20           0.816209   13.513362    4.541935 C.3      1 SUBUNIT    0.0721
     10 C19          -0.258340   14.605286    4.418853 C.3      1 SUBUNIT    0.0511
     11 C18          -0.542610   14.880909    2.917677 C.3      1 SUBUNIT    0.0872
     12 N17           0.694002   15.329019    2.246942 N.3      1 SUBUNIT   -0.3021
     13 C16           0.443493   15.714744    0.875997 C.3      1 SUBUNIT    0.0972
     14 C15          -0.472610   16.952337    0.877566 C.3      1 SUBUNIT    0.0638
     15 C14           0.724001   20.494678   -0.110081 C.ar     1 SUBUNIT    0.0038
     16 C13           1.939747   20.539362    0.555790 C.ar     1 SUBUNIT    0.0003
     17 C12           2.345600   19.441078    1.297710 C.ar     1 SUBUNIT    0.0003
     18 C11           1.533338   18.315905    1.360311 C.ar     1 SUBUNIT    0.0045
     19 C10           0.305351   18.263067    0.704812 C.ar     1 SUBUNIT   -0.0359
     20 C09          -0.096525   19.373791   -0.037317 C.ar     1 SUBUNIT   -0.0437
     21 C08          -1.354833   19.462294   -0.776293 C.3      1 SUBUNIT    0.0403
     22 C07          -2.539138   19.113743    0.081569 C.3      1 SUBUNIT    0.0403
     23 C06          -2.363122   15.353702    0.422591 C.ar     1 SUBUNIT    0.0045
     24 C05          -1.925283   16.682314    0.437736 C.ar     1 SUBUNIT   -0.0359
     25 C04          -2.841324   17.679169    0.096192 C.ar     1 SUBUNIT   -0.0437
     26 C03          -4.144961   17.347513   -0.254064 C.ar     1 SUBUNIT    0.0038
     27 C02          -4.566475   16.028877   -0.278177 C.ar     1 SUBUNIT    0.0003
@<TRIPOS>BOND
     1    9    4 1
     2    1    4 1
     3    2    4 1
     4    3    4 1
     5    6    9 1
     6    8    7 1
     7    8    9 1
     8   10    9 1
     9   11   10 1
    10   12    7 1
    11   12   11 1
    12   13   12 1
    13   14   13 1
    14   16   15 ar
    15   17   16 ar
    16   18   17 ar
    17   19   14 1
    18   19   18 ar
    19   20   19 ar
    20   20   15 ar
    21   21   20 1
    22   22   21 1
    23   23    5 ar
    24   24   14 1
    25   24   23 ar
    26   25   24 ar
    27   25   22 1
    28   26   25 ar
    29   27   26 ar
    30   27    5 ar
@<SCITEGIC>ATOM_PROPERTY
Formal Charge
SciTegic.value.StringValue
1 0
2 0
3 0
4 0
5 0
6 0
7 0
8 0
9 0
10 0
11 0
12 0
13 0
14 0
15 0
16 0
17 0
18 0
19 0
20 0
21 0
22 0
23 0
24 0
25 0
26 0
27 0

@<SCITEGIC>ATOM_PROPERTY
pdb_tempFactor
SciTegic.value.DoubleValue
1 0.00
2 0.00
3 0.00
4 0.00
5 0.00
6 0.00
7 0.00
8 0.00
9 0.00
10 0.00
11 0.00
12 0.00
13 0.00
14 0.00
15 0.00
16 0.00
17 0.00
18 0.00
19 0.00
20 0.00
21 0.00
22 0.00
23 0.00
24 0.00
25 0.00
26 0.00
27 0.00

@<SCITEGIC>ATOM_PROPERTY
pdb_occupancy
SciTegic.value.DoubleValue
1 1.00
2 1.00
3 1.00
4 1.00
5 1.00
6 1.00
7 1.00
8 1.00
9 1.00
10 1.00
11 1.00
12 1.00
13 1.00
14 1.00
15 1.00
16 1.00
17 1.00
18 1.00
19 1.00
20 1.00
21 1.00
22 1.00
23 1.00
24 1.00
25 1.00
26 1.00
27 1.00

#	Copyright 2023 drugdesign.org
#	Creation time:	2024-01-11T10:51:46Z

@<SCITEGIC>ROOT_PROPERTY
Ligand:MaximumNumberOfAtoms
SciTegic.value.IntegerValue
100

@<SCITEGIC>ROOT_PROPERTY
Ligand:HydrogenAtomsCountTowardsMaximum
SciTegic.value.BooleanValue
FALSE

@<TRIPOS>MOLECULE
Molecule
   27    30     0 0 0
SMALL
USER_CHARGES


@<TRIPOS>ATOM
      1 C28           3.398914   13.032957    6.102063 C.3      1 SUBUNIT    0.0136
      2 C27           2.971275   15.506765    6.269984 C.3      1 SUBUNIT    0.0136
      3 C26           1.293997   13.872078    7.186517 C.3      1 SUBUNIT    0.0136
      4 C25           2.310761   14.123780    6.059370 C.3      1 SUBUNIT   -0.0092
      5 C24          -3.669339   15.031240    0.063017 C.ar     1 SUBUNIT    0.0003
      6 O23           1.002025   12.814158    4.459920 O.3      1 SUBUNIT   -0.1783
      7 C22           1.976518   14.445908    2.206452 C.3      1 SUBUNIT    0.0872
      8 C21           2.652031   14.379818    3.586192 C.3      1 SUBUNIT    0.0511
      9 C20           1.603576   14.096022    4.678370 C.3      1 SUBUNIT    0.0721
     10 C19           0.509058   15.173086    4.614661 C.3      1 SUBUNIT    0.0511
     11 C18          -0.084486   15.219692    3.180839 C.3      1 SUBUNIT    0.0872
     12 N17           0.978843   15.539916    2.207862 N.3      1 SUBUNIT   -0.3021
     13 C16           0.443493   15.714744    0.875997 C.3      1 SUBUNIT    0.0972
     14 C15          -0.472610   16.952337    0.877566 C.3      1 SUBUNIT    0.0638
     15 C14           0.724001   20.494678   -0.110081 C.ar     1 SUBUNIT    0.0038
     16 C13           1.939747   20.539362    0.555790 C.ar     1 SUBUNIT    0.0003
     17 C12           2.345600   19.441078    1.297710 C.ar     1 SUBUNIT    0.0003
     18 C11           1.533338   18.315905    1.360311 C.ar     1 SUBUNIT    0.0045
     19 C10           0.305351   18.263067    0.704812 C.ar     1 SUBUNIT   -0.0359
     20 C09          -0.096525   19.373791   -0.037317 C.ar     1 SUBUNIT   -0.0437
     21 C08          -1.354833   19.462294   -0.776293 C.3      1 SUBUNIT    0.0403
     22 C07          -2.539138   19.113743    0.081569 C.3      1 SUBUNIT    0.0403
     23 C06          -2.363122   15.353702    0.422591 C.ar     1 SUBUNIT    0.0045
     24 C05          -1.925283   16.682314    0.437736 C.ar     1 SUBUNIT   -0.0359
     25 C04          -2.841324   17.679169    0.096192 C.ar     1 SUBUNIT   -0.0437
     26 C03          -4.144961   17.347513   -0.254064 C.ar     1 SUBUNIT    0.0038
     27 C02          -4.566475   16.028877   -0.278177 C.ar     1 SUBUNIT    0.0003
@<TRIPOS>BOND
     1    9    4 1
     2    1    4 1
     3    2    4 1
     4    3    4 1
     5    6    9 1
     6    8    7 1
     7    8    9 1
     8   10    9 1
     9   11   10 1
    10   12    7 1
    11   12   11 1
    12   13   12 1
    13   14   13 1
    14   16   15 ar
    15   17   16 ar
    16   18   17 ar
    17   19   14 1
    18   19   18 ar
    19   20   19 ar
    20   20   15 ar
    21   21   20 1
    22   22   21 1
    23   23    5 ar
    24   24   14 1
    25   24   23 ar
    26   25   24 ar
    27   25   22 1
    28   26   25 ar
    29   27   26 ar
    30   27    5 ar
@<SCITEGIC>ATOM_PROPERTY
Formal Charge
SciTegic.value.StringValue
1 0
2 0
3 0
4 0
5 0
6 0
7 0
8 0
9 0
10 0
11 0
12 0
13 0
14 0
15 0
16 0
17 0
18 0
19 0
20 0
21 0
22 0
23 0
24 0
25 0
26 0
27 0

@<SCITEGIC>ATOM_PROPERTY
pdb_tempFactor
SciTegic.value.DoubleValue
1 0.00
2 0.00
3 0.00
4 0.00
5 0.00
6 0.00
7 0.00
8 0.00
9 0.00
10 0.00
11 0.00
12 0.00
13 0.00
14 0.00
15 0.00
16 0.00
17 0.00
18 0.00
19 0.00
20 0.00
21 0.00
22 0.00
23 0.00
24 0.00
25 0.00
26 0.00
27 0.00

@<SCITEGIC>ATOM_PROPERTY
pdb_occupancy
SciTegic.value.DoubleValue
1 1.00
2 1.00
3 1.00
4 1.00
5 1.00
6 1.00
7 1.00
8 1.00
9 1.00
10 1.00
11 1.00
12 1.00
13 1.00
14 1.00
15 1.00
16 1.00
17 1.00
18 1.00
19 1.00
20 1.00
21 1.00
22 1.00
23 1.00
24 1.00
25 1.00
26 1.00
27 1.00

#	Copyright 2023 drugdesign.org
#	Creation time:	2024-01-11T10:51:46Z

@<SCITEGIC>ROOT_PROPERTY
Ligand:MaximumNumberOfAtoms
SciTegic.value.IntegerValue
100

@<SCITEGIC>ROOT_PROPERTY
Ligand:HydrogenAtomsCountTowardsMaximum
SciTegic.value.BooleanValue
FALSE

@<TRIPOS>MOLECULE
Molecule
   27    30     0 0 0
SMALL
USER_CHARGES


@<TRIPOS>ATOM
      1 C28           4.921585   14.160931    5.433475 C.3      1 SUBUNIT    0.0136
      2 C27           4.477884   16.623398    5.168556 C.3      1 SUBUNIT    0.0136
      3 C26           3.210708   15.291264    6.884709 C.3      1 SUBUNIT    0.0136
      4 C25           3.833310   15.251551    5.478148 C.3      1 SUBUNIT   -0.0092
      5 C24          -3.669339   15.031240    0.063017 C.ar     1 SUBUNIT    0.0003
      6 O23           2.151780   13.664962    4.677315 O.3      1 SUBUNIT   -0.1783
      7 C22           2.348207   14.721390    1.932185 C.3      1 SUBUNIT    0.0872
      8 C21           3.408201   14.940270    3.024373 C.3      1 SUBUNIT    0.0511
      9 C20           2.746022   14.942025    4.415117 C.3      1 SUBUNIT    0.0721
     10 C19           1.645856   16.014795    4.445253 C.3      1 SUBUNIT    0.0511
     11 C18           0.648475   15.762123    3.282628 C.3      1 SUBUNIT    0.0872
     12 N17           1.359303   15.821819    1.989934 N.3      1 SUBUNIT   -0.3021
     13 C16           0.443493   15.714744    0.875997 C.3      1 SUBUNIT    0.0972
     14 C15          -0.472610   16.952337    0.877566 C.3      1 SUBUNIT    0.0638
     15 C14           0.724001   20.494678   -0.110081 C.ar     1 SUBUNIT    0.0038
     16 C13           1.939747   20.539362    0.555790 C.ar     1 SUBUNIT    0.0003
     17 C12           2.345600   19.441078    1.297710 C.ar     1 SUBUNIT    0.0003
     18 C11           1.533338   18.315905    1.360311 C.ar     1 SUBUNIT    0.0045
     19 C10           0.305351   18.263067    0.704812 C.ar     1 SUBUNIT   -0.0359
     20 C09          -0.096525   19.373791   -0.037317 C.ar     1 SUBUNIT   -0.0437
     21 C08          -1.354833   19.462294   -0.776293 C.3      1 SUBUNIT    0.0403
     22 C07          -2.539138   19.113743    0.081569 C.3      1 SUBUNIT    0.0403
     23 C06          -2.363122   15.353702    0.422591 C.ar     1 SUBUNIT    0.0045
     24 C05          -1.925283   16.682314    0.437736 C.ar     1 SUBUNIT   -0.0359
     25 C04          -2.841324   17.679169    0.096192 C.ar     1 SUBUNIT   -0.0437
     26 C03          -4.144961   17.347513   -0.254064 C.ar     1 SUBUNIT    0.0038
     27 C02          -4.566475   16.028877   -0.278177 C.ar     1 SUBUNIT    0.0003
@<TRIPOS>BOND
     1    9    4 1
     2    1    4 1
     3    2    4 1
     4    3    4 1
     5    6    9 1
     6    8    7 1
     7    8    9 1
     8   10    9 1
     9   11   10 1
    10   12    7 1
    11   12   11 1
    12   13   12 1
    13   14   13 1
    14   16   15 ar
    15   17   16 ar
    16   18   17 ar
    17   19   14 1
    18   19   18 ar
    19   20   19 ar
    20   20   15 ar
    21   21   20 1
    22   22   21 1
    23   23    5 ar
    24   24   14 1
    25   24   23 ar
    26   25   24 ar
    27   25   22 1
    28   26   25 ar
    29   27   26 ar
    30   27    5 ar
@<SCITEGIC>ATOM_PROPERTY
Formal Charge
SciTegic.value.StringValue
1 0
2 0
3 0
4 0
5 0
6 0
7 0
8 0
9 0
10 0
11 0
12 0
13 0
14 0
15 0
16 0
17 0
18 0
19 0
20 0
21 0
22 0
23 0
24 0
25 0
26 0
27 0

@<SCITEGIC>ATOM_PROPERTY
pdb_tempFactor
SciTegic.value.DoubleValue
1 0.00
2 0.00
3 0.00
4 0.00
5 0.00
6 0.00
7 0.00
8 0.00
9 0.00
10 0.00
11 0.00
12 0.00
13 0.00
14 0.00
15 0.00
16 0.00
17 0.00
18 0.00
19 0.00
20 0.00
21 0.00
22 0.00
23 0.00
24 0.00
25 0.00
26 0.00
27 0.00

@<SCITEGIC>ATOM_PROPERTY
pdb_occupancy
SciTegic.value.DoubleValue
1 1.00
2 1.00
3 1.00
4 1.00
5 1.00
6 1.00
7 1.00
8 1.00
9 1.00
10 1.00
11 1.00
12 1.00
13 1.00
14 1.00
15 1.00
16 1.00
17 1.00
18 1.00
19 1.00
20 1.00
21 1.00
22 1.00
23 1.00
24 1.00
25 1.00
26 1.00
27 1.00

#	Copyright 2023 drugdesign.org
#	Creation time:	2024-01-11T10:51:46Z

@<SCITEGIC>ROOT_PROPERTY
Ligand:MaximumNumberOfAtoms
SciTegic.value.IntegerValue
100

@<SCITEGIC>ROOT_PROPERTY
Ligand:HydrogenAtomsCountTowardsMaximum
SciTegic.value.BooleanValue
FALSE

@<TRIPOS>MOLECULE
Molecule
   27    30     0 0 0
SMALL
USER_CHARGES


@<TRIPOS>ATOM
      1 C28           5.633667   14.688861    4.780853 C.3      1 SUBUNIT    0.0136
      2 C27           5.126062   17.104305    4.292234 C.3      1 SUBUNIT    0.0136
      3 C26           4.176264   16.006680    6.346155 C.3      1 SUBUNIT    0.0136
      4 C25           4.556529   15.787667    4.871348 C.3      1 SUBUNIT   -0.0092
      5 C24          -3.669339   15.031240    0.063017 C.ar     1 SUBUNIT    0.0003
      6 O23           2.782056   14.131655    4.563112 O.3      1 SUBUNIT   -0.1783
      7 C22           2.507792   14.839794    1.714661 C.3      1 SUBUNIT    0.0872
      8 C21           3.732367   15.180792    2.579823 C.3      1 SUBUNIT    0.0511
      9 C20           3.310849   15.360589    4.050417 C.3      1 SUBUNIT    0.0721
     10 C19           2.219757   16.440012    4.130866 C.3      1 SUBUNIT    0.0511
     11 C18           1.045554   16.056170    3.190535 C.3      1 SUBUNIT    0.0872
     12 N17           1.530704   15.948936    1.800202 N.3      1 SUBUNIT   -0.3021
     13 C16           0.443493   15.714744    0.875997 C.3      1 SUBUNIT    0.0972
     14 C15          -0.472610   16.952337    0.877566 C.3      1 SUBUNIT    0.0638
     15 C14           0.724001   20.494678   -0.110081 C.ar     1 SUBUNIT    0.0038
     16 C13           1.939747   20.539362    0.555790 C.ar     1 SUBUNIT    0.0003
     17 C12           2.345600   19.441078    1.297710 C.ar     1 SUBUNIT    0.0003
     18 C11           1.533338   18.315905    1.360311 C.ar     1 SUBUNIT    0.0045
     19 C10           0.305351   18.263067    0.704812 C.ar     1 SUBUNIT   -0.0359
     20 C09          -0.096525   19.373791   -0.037317 C.ar     1 SUBUNIT   -0.0437
     21 C08          -1.354833   19.462294   -0.776293 C.3      1 SUBUNIT    0.0403
     22 C07          -2.539138   19.113743    0.081569 C.3      1 SUBUNIT    0.0403
     23 C06          -2.363122   15.353702    0.422591 C.ar     1 SUBUNIT    0.0045
     24 C05          -1.925283   16.682314    0.437736 C.ar     1 SUBUNIT   -0.0359
     25 C04          -2.841324   17.679169    0.096192 C.ar     1 SUBUNIT   -0.0437
     26 C03          -4.144961   17.347513   -0.254064 C.ar     1 SUBUNIT    0.0038
     27 C02          -4.566475   16.028877   -0.278177 C.ar     1 SUBUNIT    0.0003
@<TRIPOS>BOND
     1    9    4 1
     2    1    4 1
     3    2    4 1
     4    3    4 1
     5    6    9 1
     6    8    7 1
     7    8    9 1
     8   10    9 1
     9   11   10 1
    10   12    7 1
    11   12   11 1
    12   13   12 1
    13   14   13 1
    14   16   15 ar
    15   17   16 ar
    16   18   17 ar
    17   19   14 1
    18   19   18 ar
    19   20   19 ar
    20   20   15 ar
    21   21   20 1
    22   22   21 1
    23   23    5 ar
    24   24   14 1
    25   24   23 ar
    26   25   24 ar
    27   25   22 1
    28   26   25 ar
    29   27   26 ar
    30   27    5 ar
@<SCITEGIC>ATOM_PROPERTY
Formal Charge
SciTegic.value.StringValue
1 0
2 0
3 0
4 0
5 0
6 0
7 0
8 0
9 0
10 0
11 0
12 0
13 0
14 0
15 0
16 0
17 0
18 0
19 0
20 0
21 0
22 0
23 0
24 0
25 0
26 0
27 0

@<SCITEGIC>ATOM_PROPERTY
pdb_tempFactor
SciTegic.value.DoubleValue
1 0.00
2 0.00
3 0.00
4 0.00
5 0.00
6 0.00
7 0.00
8 0.00
9 0.00
10 0.00
11 0.00
12 0.00
13 0.00
14 0.00
15 0.00
16 0.00
17 0.00
18 0.00
19 0.00
20 0.00
21 0.00
22 0.00
23 0.00
24 0.00
25 0.00
26 0.00
27 0.00

@<SCITEGIC>ATOM_PROPERTY
pdb_occupancy
SciTegic.value.DoubleValue
1 1.00
2 1.00
3 1.00
4 1.00
5 1.00
6 1.00
7 1.00
8 1.00
9 1.00
10 1.00
11 1.00
12 1.00
13 1.00
14 1.00
15 1.00
16 1.00
17 1.00
18 1.00
19 1.00
20 1.00
21 1.00
22 1.00
23 1.00
24 1.00
25 1.00
26 1.00
27 1.00

