#	Copyright 2023 drugdesign.org
#	Creation time:	2024-01-11T10:52:07Z

@<TRIPOS>MOLECULE
wahou.sd
    5     4     0 0 0
SMALL
USER_CHARGES


@<TRIPOS>ATOM
      1 O1            2.437700    4.399600    0.852800 O.2      1 SUBUNIT   -0.2706
      2 C2            2.671100    4.251000   -0.324300 C.2      1 SUBUNIT    0.2452
      3 H3            2.272200    3.485700   -1.009100 H        1 SUBUNIT    0.1386
      4 O4            3.508600    5.081800   -0.950800 O.3      1 SUBUNIT   -0.3342
      5 H5            3.715000    5.641100   -0.179900 H        1 SUBUNIT    0.2211
@<TRIPOS>BOND
     1    1    2 2
     2    2    3 1
     3    2    4 1
     4    4    5 1
@<SCITEGIC>ATOM_PROPERTY
Formal Charge
SciTegic.value.StringValue
1 0
2 0
3 0
4 0
5 0

@<SCITEGIC>ATOM_PROPERTY
pdb_tempFactor
SciTegic.value.DoubleValue
1 0.00
2 0.00
3 0.00
4 0.00
5 0.00

@<SCITEGIC>ATOM_PROPERTY
pdb_occupancy
SciTegic.value.DoubleValue
1 1.00
2 1.00
3 1.00
4 1.00
5 1.00

#	Copyright 2023 drugdesign.org
#	Creation time:	2024-01-11T10:52:07Z

@<TRIPOS>MOLECULE
wahou.sd
    4     3     0 0 0
SMALL
USER_CHARGES


@<TRIPOS>ATOM
      1 N1           -3.349300    1.536600   -1.009400 N.3      1 SUBUNIT   -0.3437
      2 H2           -4.334400    1.812700   -1.024100 H        1 SUBUNIT    0.1146
      3 H3           -2.981300    1.839400   -1.914800 H        1 SUBUNIT    0.1146
      4 H4           -2.855100    1.988900   -0.243500 H        1 SUBUNIT    0.1146
@<TRIPOS>BOND
     1    1    2 1
     2    1    3 1
     3    1    4 1
@<SCITEGIC>ATOM_PROPERTY
Formal Charge
SciTegic.value.StringValue
1 0
2 0
3 0
4 0

@<SCITEGIC>ATOM_PROPERTY
pdb_tempFactor
SciTegic.value.DoubleValue
1 0.00
2 0.00
3 0.00
4 0.00

@<SCITEGIC>ATOM_PROPERTY
pdb_occupancy
SciTegic.value.DoubleValue
1 1.00
2 1.00
3 1.00
4 1.00

#	Copyright 2023 drugdesign.org
#	Creation time:	2024-01-11T10:52:07Z

@<TRIPOS>MOLECULE
wahou.sd
   11    11     0 0 0
SMALL
USER_CHARGES


@<TRIPOS>ATOM
      1 C1            0.326500   -2.167800    0.907100 C.2      1 SUBUNIT   -0.0622
      2 C2            0.491800   -2.562300   -0.427000 C.2      1 SUBUNIT   -0.0622
      3 C3           -0.171600   -3.687400   -0.924100 C.2      1 SUBUNIT   -0.0622
      4 C4           -1.009500   -4.429100   -0.088000 C.2      1 SUBUNIT   -0.0622
      5 C5           -1.181200   -4.041700    1.244100 C.2      1 SUBUNIT   -0.0622
      6 C6           -0.515600   -2.916600    1.737800 C.2      1 SUBUNIT   -0.0622
      7 H7            1.152200   -1.981100   -1.095800 H        1 SUBUNIT    0.0622
      8 H8           -0.033600   -3.990800   -1.979100 H        1 SUBUNIT    0.0622
      9 H9           -1.534600   -5.319900   -0.478900 H        1 SUBUNIT    0.0622
     10 H10          -1.844600   -4.626200    1.908500 H        1 SUBUNIT    0.0622
     11 H11          -0.662000   -2.622400    2.793400 H        1 SUBUNIT    0.0622
@<TRIPOS>BOND
     1    1    2 2
     2    1    6 1
     3    2    3 1
     4    2    7 1
     5    3    4 2
     6    3    8 1
     7    4    5 1
     8    4    9 1
     9    5    6 2
    10    5   10 1
    11    6   11 1
@<SCITEGIC>ATOM_PROPERTY
Formal Charge
SciTegic.value.StringValue
1 0
2 0
3 0
4 0
5 0
6 0
7 0
8 0
9 0
10 0
11 0

@<SCITEGIC>ATOM_PROPERTY
pdb_tempFactor
SciTegic.value.DoubleValue
1 0.00
2 0.00
3 0.00
4 0.00
5 0.00
6 0.00
7 0.00
8 0.00
9 0.00
10 0.00
11 0.00

@<SCITEGIC>ATOM_PROPERTY
pdb_occupancy
SciTegic.value.DoubleValue
1 1.00
2 1.00
3 1.00
4 1.00
5 1.00
6 1.00
7 1.00
8 1.00
9 1.00
10 1.00
11 1.00

#	Copyright 2023 drugdesign.org
#	Creation time:	2024-01-11T10:52:07Z

@<TRIPOS>MOLECULE
wahou.sd
   18    17     0 0 0
SMALL
USER_CHARGES


@<TRIPOS>ATOM
      1 O1            2.622571    4.149149    0.904809 O.2      1 SUBUNIT   -0.2664
      2 C2            2.855871    4.000549   -0.272291 C.2      1 SUBUNIT    0.2626
      3 C3            2.306171    2.945648   -1.216190 C.3      1 SUBUNIT    0.0587
      4 C4            1.296371    2.051548   -0.530791 C.3      1 SUBUNIT   -0.0375
      5 C8           -1.000829    1.579449    0.117409 C.3      1 SUBUNIT   -0.0338
      6 C9           -0.061129    2.389249   -0.528391 C.3      1 SUBUNIT   -0.0540
      7 C10          -2.465729    1.952949    0.118309 C.3      1 SUBUNIT    0.0178
      8 N11          -3.164429    1.286149   -0.957391 N.3      1 SUBUNIT   -0.3265
      9 H12          -4.149529    1.562249   -0.972090 H        1 SUBUNIT    0.1187
     10 H13          -2.796429    1.588949   -1.862790 H        1 SUBUNIT    0.1187
     11 O21           3.693471    4.831349   -0.898791 O.3      1 SUBUNIT   -0.3315
     12 H22           3.899871    5.390649   -0.127891 H        1 SUBUNIT    0.2214
     13 H23           3.155471    2.335149   -1.608690 H        1 SUBUNIT    0.0423
     14 H24           1.834471    3.452648   -2.092891 H        1 SUBUNIT    0.0423
     15 H27          -0.128697    3.294312   -0.108517 H        1 SUBUNIT    0.0629
     16 H30          -0.936444    0.674718   -0.303680 H        1 SUBUNIT    0.0000
     17 H32          -0.719416    1.522596    1.075310 H        1 SUBUNIT    0.0000
     18 H34          -0.342704    2.443831   -1.486376 H        1 SUBUNIT    0.0000
@<TRIPOS>BOND
     1    1    2 2
     2    2    3 1
     3    2   11 1
     4    3    4 1
     5    3   13 1
     6    3   14 1
     7    4    6 1
     8    5    6 1
     9    5    7 1
    10    6   15 1
    11    7    8 1
    12    8    9 1
    13    8   10 1
    14   11   12 1
    15    5   16 1
    16    5   17 1
    17    6   18 1
@<SCITEGIC>ATOM_PROPERTY
Formal Charge
SciTegic.value.StringValue
1 0
2 0
3 0
4 0
5 0
6 0
7 0
8 0
9 0
10 0
11 0
12 0
13 0
14 0
15 0
16 0
17 0
18 0

@<SCITEGIC>ATOM_PROPERTY
pdb_tempFactor
SciTegic.value.DoubleValue
1 0.00
2 0.00
3 0.00
4 0.00
5 0.00
6 0.00
7 0.00
8 0.00
9 0.00
10 0.00
11 0.00
12 0.00
13 0.00
14 0.00
15 0.00
16 0.00
17 0.00
18 0.00

@<SCITEGIC>ATOM_PROPERTY
pdb_occupancy
SciTegic.value.DoubleValue
1 1.00
2 1.00
3 1.00
4 1.00
5 1.00
6 1.00
7 1.00
8 1.00
9 1.00
10 1.00
11 1.00
12 1.00
13 1.00
14 1.00
15 1.00
16 1.00
17 1.00
18 1.00

