#	Copyright 2023 drugdesign.org
#	Creation time:	2024-01-11T10:52:06Z

@<SCITEGIC>ROOT_PROPERTY
Ligand:MaximumNumberOfAtoms
SciTegic.value.IntegerValue
100

@<SCITEGIC>ROOT_PROPERTY
Ligand:HydrogenAtomsCountTowardsMaximum
SciTegic.value.BooleanValue
FALSE

@<TRIPOS>MOLECULE
tbu.sd
   31    31     0 0 0
SMALL
USER_CHARGES


@<TRIPOS>ATOM
      1 O1            4.397800   -2.403200    1.771600 O.2      1 SUBUNIT   -0.2774
      2 C2            1.443700   -0.103100   -4.424600 C.3      1 SUBUNIT    0.0006
      3 C3            1.910600   -0.004400   -2.947900 C.3      1 SUBUNIT    0.0051
      4 C4            0.722400   -0.119300   -1.933800 C.3      1 SUBUNIT    0.0086
      5 C5           -0.110600   -1.417700   -2.221100 C.3      1 SUBUNIT    0.0085
      6 C6           -0.601400   -1.518900   -3.698100 C.3      1 SUBUNIT   -0.0108
      7 C7            1.213900    0.018400   -0.451200 C.3      1 SUBUNIT    0.0824
      8 C8            2.777400    0.068600   -0.260200 C.3      1 SUBUNIT    0.1318
      9 C9            3.181600    0.138700    1.247300 C.3      1 SUBUNIT    0.0460
     10 C10           4.718100    0.009800    1.555300 C.3      1 SUBUNIT    0.0754
     11 C11           5.177900   -1.471900    1.527300 C.2      1 SUBUNIT    0.2146
     12 C12           0.617900   -1.399300   -4.667200 C.3      1 SUBUNIT    0.0034
     13 N13           6.478200   -1.681600    1.230700 N.am     1 SUBUNIT   -0.3152
     14 H14           7.027800   -0.969600    1.079900 H        1 SUBUNIT    0.1493
     15 C15           7.049400   -3.036700    1.148300 C.3      1 SUBUNIT    0.1043
     16 C16           6.779500   -3.717300   -0.216000 C.3      1 SUBUNIT    0.0186
     17 C17           7.388300   -5.147000   -0.301400 C.3      1 SUBUNIT   -0.0018
     18 C18           7.117700   -5.826000   -1.663600 C.3      1 SUBUNIT    0.0038
     19 O19           3.406700    1.120300   -1.041200 O.3      1 SUBUNIT   -0.3915
     20 H20           4.190500    1.432200   -0.594600 H        1 SUBUNIT    0.2105
     21 N21           0.463700    1.049000    0.333300 N.3      1 SUBUNIT   -0.3252
     22 H22           0.114200    1.727900   -0.254000 H        1 SUBUNIT    0.1188
     23 H23          -0.279200    0.639600    0.779900 H        1 SUBUNIT    0.1188
     24 C24          -1.782000   -0.559700   -4.090100 C.3      1 SUBUNIT    0.0035
     25 C25          -3.142500   -0.881300   -3.391500 C.3      1 SUBUNIT    0.0008
     26 C26          -4.297100    0.048900   -3.893800 C.3      1 SUBUNIT    0.0060
     27 C27          -5.716800   -0.179700   -3.256600 C.3      1 SUBUNIT   -0.0383
     28 C28          -6.253900   -1.611500   -3.552200 C.3      1 SUBUNIT    0.0106
     29 C29          -5.699400    0.049600   -1.719800 C.3      1 SUBUNIT    0.0106
     30 C30          -6.699300    0.853100   -3.891000 C.3      1 SUBUNIT    0.0106
     31 C31           5.154500    0.717000    2.868900 C.3      1 SUBUNIT    0.0177
@<TRIPOS>BOND
     1    1   11 2
     2    2   12 1
     3    2    3 1
     4    3    4 1
     5    4    5 1
     6    4    7 1
     7    5    6 1
     8    6   12 1
     9    6   24 1
    10    7    8 1
    11    7   21 1
    12    8    9 1
    13    8   19 1
    14    9   10 1
    15   10   11 1
    16   10   31 1
    17   11   13 1
    18   13   14 1
    19   13   15 1
    20   15   16 1
    21   16   17 1
    22   17   18 1
    23   19   20 1
    24   21   22 1
    25   21   23 1
    26   24   25 1
    27   25   26 1
    28   26   27 1
    29   27   28 1
    30   27   29 1
    31   27   30 1
@<SCITEGIC>ATOM_PROPERTY
Formal Charge
SciTegic.value.StringValue
1 0
2 0
3 0
4 0
5 0
6 0
7 0
8 0
9 0
10 0
11 0
12 0
13 0
14 0
15 0
16 0
17 0
18 0
19 0
20 0
21 0
22 0
23 0
24 0
25 0
26 0
27 0
28 0
29 0
30 0
31 0

@<SCITEGIC>ATOM_PROPERTY
pdb_tempFactor
SciTegic.value.DoubleValue
1 0.00
2 0.00
3 0.00
4 0.00
5 0.00
6 0.00
7 0.00
8 0.00
9 0.00
10 0.00
11 0.00
12 0.00
13 0.00
14 0.00
15 0.00
16 0.00
17 0.00
18 0.00
19 0.00
20 0.00
21 0.00
22 0.00
23 0.00
24 0.00
25 0.00
26 0.00
27 0.00
28 0.00
29 0.00
30 0.00
31 0.00

@<SCITEGIC>ATOM_PROPERTY
pdb_occupancy
SciTegic.value.DoubleValue
1 1.00
2 1.00
3 1.00
4 1.00
5 1.00
6 1.00
7 1.00
8 1.00
9 1.00
10 1.00
11 1.00
12 1.00
13 1.00
14 1.00
15 1.00
16 1.00
17 1.00
18 1.00
19 1.00
20 1.00
21 1.00
22 1.00
23 1.00
24 1.00
25 1.00
26 1.00
27 1.00
28 1.00
29 1.00
30 1.00
31 1.00

#	Copyright 2023 drugdesign.org
#	Creation time:	2024-01-11T10:52:06Z

@<SCITEGIC>ROOT_PROPERTY
Ligand:MaximumNumberOfAtoms
SciTegic.value.IntegerValue
100

@<SCITEGIC>ROOT_PROPERTY
Ligand:HydrogenAtomsCountTowardsMaximum
SciTegic.value.BooleanValue
FALSE

@<TRIPOS>MOLECULE
tbu.sd
   56    58     0 0 0
SMALL
USER_CHARGES


@<TRIPOS>ATOM
      1 C1           -8.217600    1.859300    2.009500 C.3      1 SUBUNIT   -0.0234
      2 C2           -8.110400    3.411100    1.904900 C.3      1 SUBUNIT   -0.0014
      3 C3           -8.801500    1.447100    3.393500 C.3      1 SUBUNIT   -0.0014
      4 C4           -9.132800    1.228200    0.935200 C.3      1 SUBUNIT   -0.0014
      5 S5           -6.646300    1.156400    1.766700 S.o2     1 SUBUNIT    1.2099
      6 O6           -6.825100   -0.281300    1.763300 O.2      1 SUBUNIT   -0.5804
      7 O7           -5.766700    1.470500    2.804300 O.2      1 SUBUNIT   -0.5804
      8 C8           -5.928100    1.751700    0.336000 C.3      1 SUBUNIT    0.0046
      9 C9           -4.639200    0.938000    0.145500 C.3      1 SUBUNIT    0.0710
     10 C10          -4.286600    0.991800   -1.293700 C.3      1 SUBUNIT    0.0471
     11 C11          -5.261600    0.227700   -2.154300 C.2      1 SUBUNIT   -0.0473
     12 C12          -6.216000    0.986900   -2.798200 C.2      1 SUBUNIT    0.0035
     13 C13          -7.158400    0.348000   -3.635800 C.2      1 SUBUNIT    0.0003
     14 C14          -7.107200   -1.066900   -3.850500 C.2      1 SUBUNIT    0.0000
     15 C15          -6.124700   -1.847300   -3.226600 C.2      1 SUBUNIT    0.0003
     16 C16          -5.179700   -1.193700   -2.376800 C.2      1 SUBUNIT    0.0035
     17 C17          -3.449100    1.663500    0.648800 C.2      1 SUBUNIT    0.2146
     18 O18          -3.391600    2.867300    0.459200 O.2      1 SUBUNIT   -0.2774
     19 N19          -2.518500    0.884900    1.172500 N.am     1 SUBUNIT   -0.3031
     20 C20          -1.303900    1.417100    1.679600 C.3      1 SUBUNIT    0.1651
     21 C21          -1.327000    1.575400    3.233600 C.3      1 SUBUNIT    0.0817
     22 C22          -1.744800    2.953000    3.847300 C.2      1 SUBUNIT    0.0174
     23 N23          -3.039800    3.223800    4.398000 N.pl3    1 SUBUNIT   -0.2516
     24 C24          -3.051700    4.502300    4.799400 C.2      1 SUBUNIT    0.1700
     25 N25          -1.863300    5.068100    4.533000 N.2      1 SUBUNIT   -0.2513
     26 C26          -1.029000    4.112300    3.932600 C.2      1 SUBUNIT    0.1276
     27 C27          -0.228800    0.420000    1.247200 C.2      1 SUBUNIT    0.2328
     28 O28          -0.059400   -0.692400    1.804300 O.2      1 SUBUNIT   -0.2755
     29 N29           0.518700    0.897400    0.250500 N.am     1 SUBUNIT   -0.3083
     30 C30           1.649400    0.182000   -0.354900 C.3      1 SUBUNIT    0.1018
     31 C31           1.650800    0.376400   -1.855400 C.3      1 SUBUNIT    0.0285
     32 C32           0.299300   -0.087800   -2.351700 C.3      1 SUBUNIT   -0.0092
     33 C33           0.267400   -0.159400   -3.885600 C.3      1 SUBUNIT    0.0035
     34 C34          -1.185800   -0.533200   -4.274900 C.3      1 SUBUNIT    0.0003
     35 C35          -1.477800   -1.990600   -3.817800 C.3      1 SUBUNIT    0.0000
     36 C36          -1.116700   -2.249700   -2.333500 C.3      1 SUBUNIT    0.0003
     37 C37           0.164000   -1.502500   -1.813800 C.3      1 SUBUNIT    0.0035
     38 C38           3.078900    0.558700    0.138500 C.3      1 SUBUNIT    0.1351
     39 O39           3.529300    1.847600   -0.339200 O.3      1 SUBUNIT   -0.3912
     40 C40           3.230200    0.419500    1.655200 C.3      1 SUBUNIT    0.0469
     41 C41           4.704100    0.194700    2.007400 C.3      1 SUBUNIT    0.0810
     42 C42           5.019000    0.629500    3.456200 C.3      1 SUBUNIT   -0.0051
     43 C43           6.223200   -0.140100    3.915100 C.3      1 SUBUNIT    0.0080
     44 C44           5.467000    2.090300    3.551300 C.3      1 SUBUNIT    0.0080
     45 C45           5.123800   -1.267600    1.824900 C.2      1 SUBUNIT    0.2151
     46 O46           4.320600   -2.184900    2.055400 O.2      1 SUBUNIT   -0.2774
     47 N47           6.415300   -1.395700    1.455200 N.am     1 SUBUNIT   -0.3152
     48 C48           7.213800   -2.586500    1.274500 C.3      1 SUBUNIT    0.1043
     49 C49           6.689200   -3.527100    0.252200 C.3      1 SUBUNIT    0.0186
     50 C50           7.722600   -4.667200    0.241800 C.3      1 SUBUNIT   -0.0018
     51 C51           7.049900   -5.878000   -0.460000 C.3      1 SUBUNIT    0.0038
     52 H52          -2.675400   -0.114900    1.213100 H        1 SUBUNIT    0.1502
     53 H53           0.291500    1.814900   -0.113300 H        1 SUBUNIT    0.1498
     54 H54           4.395000    1.982300    0.010100 H        1 SUBUNIT    0.2105
     55 H55           6.898900   -0.523700    1.277200 H        1 SUBUNIT    0.1493
     56 H56          -3.806800    2.567800    4.470600 H        1 SUBUNIT    0.1349
@<TRIPOS>BOND
     1    1    2 1
     2    1    3 1
     3    1    4 1
     4    1    5 1
     5    5    6 2
     6    5    7 2
     7    5    8 1
     8    8    9 1
     9    9   10 1
    10    9   17 1
    11   10   11 1
    12   11   12 2
    13   11   16 1
    14   12   13 1
    15   13   14 2
    16   14   15 1
    17   15   16 2
    18   17   18 2
    19   17   19 1
    20   19   20 1
    21   19   52 1
    22   20   21 1
    23   20   27 1
    24   21   22 1
    25   22   23 1
    26   22   26 2
    27   23   24 1
    28   23   56 1
    29   24   25 2
    30   25   26 1
    31   27   28 2
    32   27   29 1
    33   29   30 1
    34   29   53 1
    35   30   31 1
    36   30   38 1
    37   31   32 1
    38   32   33 1
    39   32   37 1
    40   33   34 1
    41   34   35 1
    42   35   36 1
    43   36   37 1
    44   38   39 1
    45   38   40 1
    46   39   54 1
    47   40   41 1
    48   41   42 1
    49   41   45 1
    50   42   43 1
    51   42   44 1
    52   45   46 2
    53   45   47 1
    54   47   48 1
    55   47   55 1
    56   48   49 1
    57   49   50 1
    58   50   51 1
@<SCITEGIC>ATOM_PROPERTY
Formal Charge
SciTegic.value.StringValue
1 0
2 0
3 0
4 0
5 0
6 0
7 0
8 0
9 0
10 0
11 0
12 0
13 0
14 0
15 0
16 0
17 0
18 0
19 0
20 0
21 0
22 0
23 0
24 0
25 0
26 0
27 0
28 0
29 0
30 0
31 0
32 0
33 0
34 0
35 0
36 0
37 0
38 0
39 0
40 0
41 0
42 0
43 0
44 0
45 0
46 0
47 0
48 0
49 0
50 0
51 0
52 0
53 0
54 0
55 0
56 0

@<SCITEGIC>ATOM_PROPERTY
pdb_tempFactor
SciTegic.value.DoubleValue
1 0.00
2 0.00
3 0.00
4 0.00
5 0.00
6 0.00
7 0.00
8 0.00
9 0.00
10 0.00
11 0.00
12 0.00
13 0.00
14 0.00
15 0.00
16 0.00
17 0.00
18 0.00
19 0.00
20 0.00
21 0.00
22 0.00
23 0.00
24 0.00
25 0.00
26 0.00
27 0.00
28 0.00
29 0.00
30 0.00
31 0.00
32 0.00
33 0.00
34 0.00
35 0.00
36 0.00
37 0.00
38 0.00
39 0.00
40 0.00
41 0.00
42 0.00
43 0.00
44 0.00
45 0.00
46 0.00
47 0.00
48 0.00
49 0.00
50 0.00
51 0.00
52 0.00
53 0.00
54 0.00
55 0.00
56 0.00

@<SCITEGIC>ATOM_PROPERTY
pdb_occupancy
SciTegic.value.DoubleValue
1 1.00
2 1.00
3 1.00
4 1.00
5 1.00
6 1.00
7 1.00
8 1.00
9 1.00
10 1.00
11 1.00
12 1.00
13 1.00
14 1.00
15 1.00
16 1.00
17 1.00
18 1.00
19 1.00
20 1.00
21 1.00
22 1.00
23 1.00
24 1.00
25 1.00
26 1.00
27 1.00
28 1.00
29 1.00
30 1.00
31 1.00
32 1.00
33 1.00
34 1.00
35 1.00
36 1.00
37 1.00
38 1.00
39 1.00
40 1.00
41 1.00
42 1.00
43 1.00
44 1.00
45 1.00
46 1.00
47 1.00
48 1.00
49 1.00
50 1.00
51 1.00
52 1.00
53 1.00
54 1.00
55 1.00
56 1.00

