#	Copyright 2023 drugdesign.org
#	Creation time:	2024-01-11T10:51:47Z

@<SCITEGIC>ROOT_PROPERTY
Ligand:MaximumNumberOfAtoms
SciTegic.value.IntegerValue
100

@<SCITEGIC>ROOT_PROPERTY
Ligand:HydrogenAtomsCountTowardsMaximum
SciTegic.value.BooleanValue
FALSE

@<TRIPOS>MOLECULE
Molecule
   29    32     0 0 0
SMALL
USER_CHARGES


@<TRIPOS>ATOM
      1 C56           6.068608   13.867558    3.246061 C.3      1 SUBUNIT    0.0136
      2 C55           5.238445   16.185986    2.800626 C.3      1 SUBUNIT    0.0136
      3 C54           4.853661   15.129837    5.026239 C.3      1 SUBUNIT    0.0136
      4 C53           4.870954   14.836037    3.493050 C.3      1 SUBUNIT   -0.0092
      5 C52          -4.274315   13.456278   -0.576400 C.ar     1 SUBUNIT    0.0003
      6 O51           3.273352   12.923530    3.622267 O.3      1 SUBUNIT   -0.1783
      7 C50           2.146347   13.442399    0.873670 C.3      1 SUBUNIT    0.0872
      8 C49           3.517497   13.913978    1.433114 C.3      1 SUBUNIT    0.0511
      9 C48           3.496498   14.204157    2.974435 C.3      1 SUBUNIT    0.0721
     10 C47           2.249388   15.118923    3.269138 C.3      1 SUBUNIT    0.0511
     11 C46           0.901513   14.551828    2.703089 C.3      1 SUBUNIT    0.0872
     12 N45           1.055337   14.385060    1.243380 N.3      1 SUBUNIT   -0.3021
     13 C44          -0.177924   14.257714    0.437058 C.3      1 SUBUNIT    0.0972
     14 C43          -1.137186   15.473563    0.624184 C.3      1 SUBUNIT    0.0638
     15 C42           0.308246   18.943222   -0.526285 C.ar     1 SUBUNIT    0.0038
     16 C41           1.425487   19.060993    0.317753 C.ar     1 SUBUNIT    0.0003
     17 C40           1.678812   18.061836    1.270423 C.ar     1 SUBUNIT    0.0003
     18 C39           0.828435   16.943172    1.359390 C.ar     1 SUBUNIT    0.0045
     19 C38          -0.266917   16.764996    0.513066 C.ar     1 SUBUNIT   -0.0359
     20 C37          -0.551227   17.827477   -0.434529 C.ar     1 SUBUNIT   -0.0437
     21 C36          -1.792138   17.808228   -1.316928 C.3      1 SUBUNIT    0.0403
     22 C35          -3.049329   17.604668   -0.448802 C.3      1 SUBUNIT    0.0403
     23 C34          -2.989040   13.763410   -0.079263 C.ar     1 SUBUNIT    0.0045
     24 C33          -2.562556   15.120406    0.026865 C.ar     1 SUBUNIT   -0.0359
     25 C32          -3.449307   16.132706   -0.432264 C.ar     1 SUBUNIT   -0.0437
     26 C31          -4.734857   15.803431   -0.913610 C.ar     1 SUBUNIT    0.0038
     27 C30          -5.153446   14.468150   -0.983309 C.ar     1 SUBUNIT    0.0003
     28 H58           0.700489   13.668422    3.126389 H        1 SUBUNIT    0.0000
     29 H60           0.156942   15.191149    2.895143 H        1 SUBUNIT    0.0000
@<TRIPOS>BOND
     1    9    4 1
     2    1    4 1
     3    2    4 1
     4    3    4 1
     5    6    9 1
     6    8    7 1
     7    8    9 1
     8   10    9 1
     9   11   10 1
    10   12    7 1
    11   12   11 1
    12   13   12 1
    13   14   13 1
    14   16   15 ar
    15   17   16 ar
    16   18   17 ar
    17   19   14 1
    18   19   18 ar
    19   20   19 ar
    20   20   15 ar
    21   21   20 1
    22   22   21 1
    23   23    5 ar
    24   24   14 1
    25   24   23 ar
    26   25   24 ar
    27   25   22 1
    28   26   25 ar
    29   27   26 ar
    30   27    5 ar
    31   11   28 1
    32   11   29 1
@<SCITEGIC>ATOM_PROPERTY
Formal Charge
SciTegic.value.StringValue
1 0
2 0
3 0
4 0
5 0
6 0
7 0
8 0
9 0
10 0
11 0
12 0
13 0
14 0
15 0
16 0
17 0
18 0
19 0
20 0
21 0
22 0
23 0
24 0
25 0
26 0
27 0
28 0
29 0

@<SCITEGIC>ATOM_PROPERTY
pdb_tempFactor
SciTegic.value.DoubleValue
1 0.00
2 0.00
3 0.00
4 0.00
5 0.00
6 0.00
7 0.00
8 0.00
9 0.00
10 0.00
11 0.00
12 0.00
13 0.00
14 0.00
15 0.00
16 0.00
17 0.00
18 0.00
19 0.00
20 0.00
21 0.00
22 0.00
23 0.00
24 0.00
25 0.00
26 0.00
27 0.00
28 0.00
29 0.00

@<SCITEGIC>ATOM_PROPERTY
pdb_occupancy
SciTegic.value.DoubleValue
1 1.00
2 1.00
3 1.00
4 1.00
5 1.00
6 1.00
7 1.00
8 1.00
9 1.00
10 1.00
11 1.00
12 1.00
13 1.00
14 1.00
15 1.00
16 1.00
17 1.00
18 1.00
19 1.00
20 1.00
21 1.00
22 1.00
23 1.00
24 1.00
25 1.00
26 1.00
27 1.00
28 1.00
29 1.00

#	Copyright 2023 drugdesign.org
#	Creation time:	2024-01-11T10:51:47Z

@<SCITEGIC>ROOT_PROPERTY
Ligand:MaximumNumberOfAtoms
SciTegic.value.IntegerValue
100

@<SCITEGIC>ROOT_PROPERTY
Ligand:HydrogenAtomsCountTowardsMaximum
SciTegic.value.BooleanValue
FALSE

@<TRIPOS>MOLECULE
Molecule
   27    31     0 0 0
SMALL
USER_CHARGES


@<TRIPOS>ATOM
      1 C28          -1.592240    7.701672    2.683266 C.3      1 SUBUNIT   -0.0574
      2 C27          -2.678469    9.549142    3.975405 C.3      1 SUBUNIT   -0.0574
      3 C26          -3.885239    8.480303    2.072699 C.3      1 SUBUNIT   -0.0574
      4 C25          -2.478320    8.976433    2.536962 C.3      1 SUBUNIT   -0.0092
      5 C24          -4.288131   13.238403   -0.535721 C.ar     1 SUBUNIT   -0.0619
      6 O23          -1.620988    9.381819    0.229202 O.3      1 SUBUNIT   -0.3891
      7 C22           0.169539   11.647914    1.096948 C.3      1 SUBUNIT    0.0010
      8 C21          -0.419026   10.518117    1.987436 C.3      1 SUBUNIT   -0.0107
      9 C20          -1.829766   10.022026    1.516073 C.3      1 SUBUNIT    0.0721
     10 C19          -2.728582   11.292591    1.282367 C.3      1 SUBUNIT   -0.0107
     11 C18          -2.076306   12.364379    0.342878 C.3      1 SUBUNIT    0.0441
     12 N17          -0.790241   12.774185    0.942206 N.3      1 SUBUNIT   -0.3021
     13 C16          -0.191534   14.043724    0.474601 C.3      1 SUBUNIT    0.0092
     14 C15          -1.151771   15.257461    0.663895 C.3      1 SUBUNIT    0.0222
     15 C14           0.289213   18.730684   -0.484395 C.ar     1 SUBUNIT   -0.0587
     16 C13           1.408158   18.848669    0.358705 C.ar     1 SUBUNIT   -0.0619
     17 C12           1.662371   17.847769    1.310065 C.ar     1 SUBUNIT   -0.0619
     18 C11           0.813144   16.729204    1.398717 C.ar     1 SUBUNIT   -0.0581
     19 C10          -0.300061   16.578459    0.536413 C.ar     1 SUBUNIT   -0.0359
     20 C09          -0.569100   17.614023   -0.392954 C.ar     1 SUBUNIT   -0.0437
     21 C08          -1.810846   17.594492   -1.274170 C.3      1 SUBUNIT   -0.0235
     22 C07          -3.066990   17.387835   -0.405047 C.3      1 SUBUNIT    0.0084
     23 C06          -3.002648   13.547267   -0.040505 C.ar     1 SUBUNIT   -0.0581
     24 C05          -2.577388   14.904552    0.067604 C.ar     1 SUBUNIT   -0.0359
     25 C04          -3.465551   15.916476   -0.389624 C.ar     1 SUBUNIT   -0.0437
     26 C03          -4.751228   15.586469   -0.871061 C.ar     1 SUBUNIT   -0.0587
     27 C02          -5.168632   14.250851   -0.940728 C.ar     1 SUBUNIT   -0.0619
@<TRIPOS>BOND
     1    9    4 1
     2    1    4 1
     3    2    4 1
     4    3    4 1
     5    6    9 1
     6    8    7 1
     7    8    9 1
     8   10    9 1
     9   11   10 1
    10   12    7 1
    11   12   11 1
    12   13   12 1
    13   14   13 1
    14   16   15 ar
    15   17   16 ar
    16   18   17 ar
    17   19   14 1
    18   19   18 ar
    19   20   19 ar
    20   20   15 ar
    21   21   20 1
    22   22   21 1
    23   23    5 ar
    24   24   14 1
    25   24   23 ar
    26   25   24 ar
    27   25   22 1
    28   26   25 ar
    29   27   26 ar
    30   27    5 ar
    31   23   11 1
@<SCITEGIC>ATOM_PROPERTY
Formal Charge
SciTegic.value.StringValue
1 0
2 0
3 0
4 0
5 0
6 0
7 0
8 0
9 0
10 0
11 0
12 0
13 0
14 0
15 0
16 0
17 0
18 0
19 0
20 0
21 0
22 0
23 0
24 0
25 0
26 0
27 0

@<SCITEGIC>ATOM_PROPERTY
pdb_tempFactor
SciTegic.value.DoubleValue
1 0.00
2 0.00
3 0.00
4 0.00
5 0.00
6 0.00
7 0.00
8 0.00
9 0.00
10 0.00
11 0.00
12 0.00
13 0.00
14 0.00
15 0.00
16 0.00
17 0.00
18 0.00
19 0.00
20 0.00
21 0.00
22 0.00
23 0.00
24 0.00
25 0.00
26 0.00
27 0.00

@<SCITEGIC>ATOM_PROPERTY
pdb_occupancy
SciTegic.value.DoubleValue
1 1.00
2 1.00
3 1.00
4 1.00
5 1.00
6 1.00
7 1.00
8 1.00
9 1.00
10 1.00
11 1.00
12 1.00
13 1.00
14 1.00
15 1.00
16 1.00
17 1.00
18 1.00
19 1.00
20 1.00
21 1.00
22 1.00
23 1.00
24 1.00
25 1.00
26 1.00
27 1.00

