#	Copyright 2023 drugdesign.org
#	Creation time:	2024-01-11T10:52:10Z

@<TRIPOS>MOLECULE
pyrrolo
   21    23     0 0 0
SMALL
USER_CHARGES


@<TRIPOS>ATOM
      1 H1           -0.770064    4.024537   -1.338853 H        1 SUBUNIT    0.1355
      2 C2           -0.562000    1.045800   -0.056300 C.ar     1 SUBUNIT    0.0532
      3 C3           -1.183200   -0.067400    0.548300 C.ar     1 SUBUNIT    0.1223
      4 N4           -2.529100    0.003900    0.757000 N.ar     1 SUBUNIT   -0.2239
      5 C5           -3.260300    1.101600    0.396800 C.ar     1 SUBUNIT    0.2251
      6 N6           -2.682000    2.183300   -0.183500 N.ar     1 SUBUNIT   -0.2239
      7 C7            0.872300    1.320500   -0.438900 C.ar     1 SUBUNIT   -0.0235
      8 C8            0.851500    2.566700   -0.989200 C.ar     1 SUBUNIT   -0.0022
      9 N9           -0.496700    3.127300   -0.992100 N.ar     1 SUBUNIT   -0.2461
     10 C10          -1.347000    2.146200   -0.404300 C.ar     1 SUBUNIT    0.1221
     11 C11           1.953700    3.441200   -1.579400 C.3      1 SUBUNIT    0.0580
     12 C12           2.043700    0.350600   -0.226000 C.3      1 SUBUNIT    0.0464
     13 N13          -0.425500   -1.252300    0.958200 N.pl3    1 SUBUNIT   -0.2424
     14 C14          -1.020000   -2.589500    1.026900 C.ar     1 SUBUNIT    0.0212
     15 C15          -2.030000   -2.942400    0.090900 C.ar     1 SUBUNIT    0.0202
     16 C16          -2.622400   -4.224900    0.126700 C.ar     1 SUBUNIT    0.0028
     17 C17          -2.207000   -5.160000    1.102900 C.ar     1 SUBUNIT    0.0156
     18 C18          -1.204200   -4.812000    2.044700 C.ar     1 SUBUNIT    0.0191
     19 C19          -0.613600   -3.528500    2.010100 C.ar     1 SUBUNIT    0.0356
     20 Br20         -0.666400   -6.032800    3.321300 Br       1 SUBUNIT   -0.0508
     21 H21           0.556900   -1.141100    1.207900 H        1 SUBUNIT    0.1358
@<TRIPOS>BOND
     1    1    9 1
     2    2   10 ar
     3    2    3 ar
     4    2    7 ar
     5    3    4 ar
     6    3   13 1
     7    4    5 ar
     8    5    6 ar
     9    6   10 ar
    10    7    8 ar
    11    7   12 1
    12    8    9 ar
    13    8   11 1
    14    9   10 ar
    15   13   14 1
    16   13   21 1
    17   14   15 ar
    18   14   19 ar
    19   15   16 ar
    20   16   17 ar
    21   17   18 ar
    22   18   19 ar
    23   18   20 1
@<SCITEGIC>ATOM_PROPERTY
Formal Charge
SciTegic.value.StringValue
1 0
2 0
3 0
4 0
5 0
6 0
7 0
8 0
9 0
10 0
11 0
12 0
13 0
14 0
15 0
16 0
17 0
18 0
19 0
20 0
21 0

@<SCITEGIC>ATOM_PROPERTY
pdb_tempFactor
SciTegic.value.DoubleValue
1 0.00
2 0.00
3 0.00
4 0.00
5 0.00
6 0.00
7 0.00
8 0.00
9 0.00
10 0.00
11 0.00
12 0.00
13 0.00
14 0.00
15 0.00
16 0.00
17 0.00
18 0.00
19 0.00
20 0.00
21 0.00

@<SCITEGIC>ATOM_PROPERTY
pdb_occupancy
SciTegic.value.DoubleValue
1 1.00
2 1.00
3 1.00
4 1.00
5 1.00
6 1.00
7 1.00
8 1.00
9 1.00
10 1.00
11 1.00
12 1.00
13 1.00
14 1.00
15 1.00
16 1.00
17 1.00
18 1.00
19 1.00
20 1.00
21 1.00

