#	Copyright 2023 drugdesign.org
#	Creation time:	2024-01-11T10:52:09Z

@<SCITEGIC>ROOT_PROPERTY
Ligand:MaximumNumberOfAtoms
SciTegic.value.IntegerValue
100

@<SCITEGIC>ROOT_PROPERTY
Ligand:HydrogenAtomsCountTowardsMaximum
SciTegic.value.BooleanValue
FALSE

@<TRIPOS>MOLECULE
staurosporine
   37    44     0 0 0
SMALL
USER_CHARGES


@<TRIPOS>ATOM
      1 H1           -0.936500    4.038500   -1.167600 H        1 SUBUNIT    0.1500
      2 N2           -0.575700    3.244600   -0.920300 N.am     1 SUBUNIT   -0.3071
      3 C3           -1.340700    2.250800   -0.406600 C.2      1 SUBUNIT    0.2442
      4 C4           -0.359900    1.192700   -0.057200 C.ar     1 SUBUNIT    0.0521
      5 C5            0.924600    1.611900   -0.434700 C.ar     1 SUBUNIT   -0.0080
      6 C6            0.881800    3.001700   -1.056500 C.3      1 SUBUNIT    0.1417
      7 O7           -2.563500    2.313800   -0.296700 O.2      1 SUBUNIT   -0.2719
      8 C8           -0.533800   -0.075700    0.556800 C.ar     1 SUBUNIT    0.0164
      9 C9            0.593500   -0.890700    0.753900 C.ar     1 SUBUNIT    0.0522
     10 C10           1.885500   -0.473200    0.366200 C.ar     1 SUBUNIT    0.0521
     11 C11           2.048100    0.786700   -0.223100 C.ar     1 SUBUNIT    0.0091
     12 C12           3.421300    0.962600   -0.488400 C.ar     1 SUBUNIT    0.0023
     13 C13           4.114900   -0.177300   -0.061900 C.ar     1 SUBUNIT    0.0325
     14 N14           3.163600   -1.173300    0.480800 N.ar     1 SUBUNIT   -0.2102
     15 C15           4.091300    2.059200   -1.064800 C.ar     1 SUBUNIT    0.0103
     16 C16           5.496000    1.998000   -1.200400 C.ar     1 SUBUNIT    0.0008
     17 C17           6.207100    0.862300   -0.763400 C.ar     1 SUBUNIT    0.0017
     18 C18           5.520400   -0.230400   -0.186500 C.ar     1 SUBUNIT    0.0211
     19 N19           0.218700   -2.135600    1.382500 N.ar     1 SUBUNIT   -0.2149
     20 C20          -1.223100   -2.035000    1.549000 C.ar     1 SUBUNIT    0.0322
     21 C21          -1.665900   -0.793100    1.063900 C.ar     1 SUBUNIT    0.0027
     22 C22          -3.034400   -0.460300    1.132300 C.ar     1 SUBUNIT    0.0103
     23 C23          -3.934200   -1.398900    1.690000 C.ar     1 SUBUNIT    0.0008
     24 C24          -3.483200   -2.645900    2.168900 C.ar     1 SUBUNIT    0.0017
     25 C25          -2.113300   -2.977100    2.102300 C.ar     1 SUBUNIT    0.0211
     26 C26           1.063800   -3.293900    1.630000 C.3      1 SUBUNIT    0.2014
     27 O27           2.222900   -3.410700    0.752400 O.3      1 SUBUNIT   -0.3381
     28 C28           3.370100   -2.542200    1.034700 C.3      1 SUBUNIT    0.1566
     29 C29           1.437100   -3.481700    3.136600 C.3      1 SUBUNIT    0.0709
     30 C30           2.971200   -3.645600    3.355700 C.3      1 SUBUNIT    0.0904
     31 C31           3.705100   -2.496600    2.586300 C.3      1 SUBUNIT    0.1821
     32 C32           4.484700   -3.322900    0.271800 C.3      1 SUBUNIT    0.0642
     33 N33           3.378900   -3.725700    4.801800 N.3      1 SUBUNIT   -0.3142
     34 H34           4.336700   -3.777900    4.851200 H        1 SUBUNIT    0.1223
     35 C35           2.816100   -4.906900    5.517900 C.3      1 SUBUNIT    0.1013
     36 O36           3.430200   -1.193200    3.180300 O.3      1 SUBUNIT   -0.3753
     37 C37           4.501100   -0.685200    4.022500 C.3      1 SUBUNIT    0.1951
@<TRIPOS>BOND
     1    1    2 1
     2    2    3 1
     3    2    6 1
     4    3    4 1
     5    3    7 2
     6    4    5 ar
     7    4    8 ar
     8    5    6 1
     9    5   11 ar
    10    8    9 ar
    11    8   21 ar
    12    9   10 ar
    13    9   19 ar
    14   10   11 ar
    15   10   14 ar
    16   11   12 ar
    17   12   13 ar
    18   12   15 ar
    19   13   14 ar
    20   13   18 ar
    21   14   28 1
    22   15   16 ar
    23   16   17 ar
    24   17   18 ar
    25   19   20 ar
    26   19   26 1
    27   20   21 ar
    28   20   25 ar
    29   21   22 ar
    30   22   23 ar
    31   23   24 ar
    32   24   25 ar
    33   26   27 1
    34   26   29 1
    35   27   28 1
    36   28   31 1
    37   28   32 1
    38   29   30 1
    39   30   31 1
    40   30   33 1
    41   31   36 1
    42   33   34 1
    43   33   35 1
    44   36   37 1
@<SCITEGIC>ATOM_PROPERTY
Formal Charge
SciTegic.value.StringValue
1 0
2 0
3 0
4 0
5 0
6 0
7 0
8 0
9 0
10 0
11 0
12 0
13 0
14 0
15 0
16 0
17 0
18 0
19 0
20 0
21 0
22 0
23 0
24 0
25 0
26 0
27 0
28 0
29 0
30 0
31 0
32 0
33 0
34 0
35 0
36 0
37 0

@<SCITEGIC>ATOM_PROPERTY
pdb_tempFactor
SciTegic.value.DoubleValue
1 0.00
2 0.00
3 0.00
4 0.00
5 0.00
6 0.00
7 0.00
8 0.00
9 0.00
10 0.00
11 0.00
12 0.00
13 0.00
14 0.00
15 0.00
16 0.00
17 0.00
18 0.00
19 0.00
20 0.00
21 0.00
22 0.00
23 0.00
24 0.00
25 0.00
26 0.00
27 0.00
28 0.00
29 0.00
30 0.00
31 0.00
32 0.00
33 0.00
34 0.00
35 0.00
36 0.00
37 0.00

@<SCITEGIC>ATOM_PROPERTY
pdb_occupancy
SciTegic.value.DoubleValue
1 1.00
2 1.00
3 1.00
4 1.00
5 1.00
6 1.00
7 1.00
8 1.00
9 1.00
10 1.00
11 1.00
12 1.00
13 1.00
14 1.00
15 1.00
16 1.00
17 1.00
18 1.00
19 1.00
20 1.00
21 1.00
22 1.00
23 1.00
24 1.00
25 1.00
26 1.00
27 1.00
28 1.00
29 1.00
30 1.00
31 1.00
32 1.00
33 1.00
34 1.00
35 1.00
36 1.00
37 1.00

