#	Copyright 2023 drugdesign.org
#	Creation time:	2024-01-11T10:52:06Z

@<SCITEGIC>ROOT_PROPERTY
Ligand:MaximumNumberOfAtoms
SciTegic.value.IntegerValue
100

@<SCITEGIC>ROOT_PROPERTY
Ligand:HydrogenAtomsCountTowardsMaximum
SciTegic.value.BooleanValue
FALSE

@<TRIPOS>MOLECULE
1.sd
   31    34     0 0 0
SMALL
USER_CHARGES


@<TRIPOS>ATOM
      1 O1           -8.671100    4.015472   -1.324522 O.2      1 SUBUNIT   -0.2665
      2 C2           -7.961489    3.024827   -1.385353 C.2      1 SUBUNIT    0.2613
      3 C3           -6.482202    3.070178   -1.220985 C.2      1 SUBUNIT    0.0862
      4 C4           -5.678246    2.003340   -1.242954 C.2      1 SUBUNIT    0.0179
      5 C5           -4.207661    2.040057   -1.059542 C.2      1 SUBUNIT   -0.0041
      6 C6           -3.684673    3.341445   -0.444333 C.3      1 SUBUNIT   -0.0266
      7 C7           -4.410852    4.523571   -1.138211 C.3      1 SUBUNIT    0.0080
      8 C8           -5.943511    4.468809   -1.018293 C.3      1 SUBUNIT    0.0145
      9 C9           -2.137381    3.453125   -0.686260 C.3      1 SUBUNIT   -0.0015
     10 C10          -1.388818    2.120448   -0.387406 C.3      1 SUBUNIT   -0.0038
     11 C11          -1.936865    0.985751   -1.270725 C.3      1 SUBUNIT    0.0043
     12 C12          -3.433613    1.013399   -1.412636 C.2      1 SUBUNIT    0.0043
     13 C13          -1.456101    4.677803   -0.005785 C.3      1 SUBUNIT    0.0049
     14 C14           0.070762    4.739406   -0.214068 C.3      1 SUBUNIT    0.0080
     15 C15           0.770523    3.433343    0.206556 C.3      1 SUBUNIT   -0.0181
     16 C16           0.134843    2.284412   -0.600659 C.3      1 SUBUNIT   -0.0010
     17 C17           2.239085    3.272338   -0.263070 C.3      1 SUBUNIT    0.0821
     18 C18           2.466622    1.744447   -0.354991 C.3      1 SUBUNIT    0.0140
     19 C19           1.080735    1.085846   -0.438576 C.3      1 SUBUNIT    0.0051
     20 C20          -4.022496    3.335020    1.069312 C.3      1 SUBUNIT    0.0118
     21 C21           0.678893    3.231574    1.742792 C.3      1 SUBUNIT    0.0123
     22 C22           3.333705    4.067599    0.455435 C.2      1 SUBUNIT    0.2157
     23 O23           4.031933    3.551689    1.313396 O.2      1 SUBUNIT   -0.2773
     24 N24           3.468102    5.337926    0.062437 N.am     1 SUBUNIT   -0.3104
     25 C25           4.397247    6.294280    0.673646 C.3      1 SUBUNIT    0.0252
     26 C26           5.783836    6.154337    0.021719 C.3      1 SUBUNIT    0.0313
     27 C27           3.859677    7.702738    0.364263 C.3      1 SUBUNIT    0.0313
     28 C28           4.534730    6.192309    2.207947 C.3      1 SUBUNIT    0.0313
     29 O29          -8.502995    1.848151   -1.603988 O.3      1 SUBUNIT   -0.3315
     30 H30           2.965873    5.628546   -0.624685 H        1 SUBUNIT    0.1499
     31 H31          -9.446512    1.917104   -1.694435 H        1 SUBUNIT    0.2214
@<TRIPOS>BOND
     1    1    2 2
     2    2    3 1
     3    2   29 1
     4    3    4 2
     5    3    8 1
     6    4    5 1
     7    5    6 1
     8    5   12 2
     9    6    7 1
    10    6    9 1
    11    6   20 1
    12    7    8 1
    13    9   10 1
    14    9   13 1
    15   10   11 1
    16   10   16 1
    17   11   12 1
    18   13   14 1
    19   14   15 1
    20   15   16 1
    21   15   17 1
    22   15   21 1
    23   16   19 1
    24   17   18 1
    25   17   22 1
    26   18   19 1
    27   22   23 2
    28   22   24 1
    29   24   25 1
    30   24   30 1
    31   25   26 1
    32   25   27 1
    33   25   28 1
    34   29   31 1
@<SCITEGIC>ATOM_PROPERTY
Formal Charge
SciTegic.value.StringValue
1 0
2 0
3 0
4 0
5 0
6 0
7 0
8 0
9 0
10 0
11 0
12 0
13 0
14 0
15 0
16 0
17 0
18 0
19 0
20 0
21 0
22 0
23 0
24 0
25 0
26 0
27 0
28 0
29 0
30 0
31 0

@<SCITEGIC>ATOM_PROPERTY
pdb_tempFactor
SciTegic.value.DoubleValue
1 0.00
2 0.00
3 0.00
4 0.00
5 0.00
6 0.00
7 0.00
8 0.00
9 0.00
10 0.00
11 0.00
12 0.00
13 0.00
14 0.00
15 0.00
16 0.00
17 0.00
18 0.00
19 0.00
20 0.00
21 0.00
22 0.00
23 0.00
24 0.00
25 0.00
26 0.00
27 0.00
28 0.00
29 0.00
30 0.00
31 0.00

@<SCITEGIC>ATOM_PROPERTY
pdb_occupancy
SciTegic.value.DoubleValue
1 1.00
2 1.00
3 1.00
4 1.00
5 1.00
6 1.00
7 1.00
8 1.00
9 1.00
10 1.00
11 1.00
12 1.00
13 1.00
14 1.00
15 1.00
16 1.00
17 1.00
18 1.00
19 1.00
20 1.00
21 1.00
22 1.00
23 1.00
24 1.00
25 1.00
26 1.00
27 1.00
28 1.00
29 1.00
30 1.00
31 1.00

#	Copyright 2023 drugdesign.org
#	Creation time:	2024-01-11T10:52:06Z

@<SCITEGIC>ROOT_PROPERTY
Ligand:MaximumNumberOfAtoms
SciTegic.value.IntegerValue
100

@<SCITEGIC>ROOT_PROPERTY
Ligand:HydrogenAtomsCountTowardsMaximum
SciTegic.value.BooleanValue
FALSE

@<TRIPOS>MOLECULE
1.sd
   28    30     0 0 0
SMALL
USER_CHARGES


@<TRIPOS>ATOM
      1 O1           -8.393298    3.937539   -1.334557 O.2      1 SUBUNIT   -0.2665
      2 C2           -7.681283    2.950566   -1.407561 C.2      1 SUBUNIT    0.2613
      3 O3           -8.219879    1.773794   -1.637506 O.3      1 SUBUNIT   -0.3315
      4 C4           -6.367643    2.971465   -1.267697 C.ar     1 SUBUNIT    0.0860
      5 C5           -5.621791    1.784619   -1.367311 C.ar     1 SUBUNIT    0.0155
      6 C6           -4.225421    1.817378   -1.216909 C.ar     1 SUBUNIT    0.0198
      7 C7           -3.574914    3.036982   -0.966901 C.ar     1 SUBUNIT    0.0566
      8 C8           -4.320767    4.223832   -0.867287 C.ar     1 SUBUNIT    0.0198
      9 C9           -5.716959    4.190093   -1.017749 C.ar     1 SUBUNIT    0.0155
     10 H10          -9.163964    1.842066   -1.724908 H        1 SUBUNIT    0.2214
     11 C11           2.532843    3.222140   -0.298903 C.3      1 SUBUNIT    0.1010
     12 C12           3.615387    4.005131    0.417408 C.2      1 SUBUNIT    0.2124
     13 O13           4.317268    3.481062    1.268093 O.2      1 SUBUNIT   -0.2777
     14 N14           3.744530    5.278811    0.037393 N.am     1 SUBUNIT   -0.3107
     15 C15           4.672491    6.231173    0.656554 C.3      1 SUBUNIT    0.0252
     16 C16           6.058858    6.102213    0.000079 C.3      1 SUBUNIT    0.0313
     17 C17           4.131268    7.641502    0.363679 C.3      1 SUBUNIT    0.0313
     18 C18           4.814742    6.114387    2.189613 C.3      1 SUBUNIT    0.0313
     19 C19          -0.134929    3.208117   -1.814155 C.2      1 SUBUNIT    0.0209
     20 C20          -1.382298    3.180701   -2.127253 C.2      1 SUBUNIT    0.0852
     21 N21          -2.111421    3.083864   -0.913945 N.pl3    1 SUBUNIT   -0.2971
     22 C22          -1.210530    3.052880    0.184019 C.ar     1 SUBUNIT    0.0600
     23 C23           0.042199    3.131292   -0.362623 C.ar     1 SUBUNIT    0.0110
     24 C24          -1.402689    2.966898    1.558294 C.ar     1 SUBUNIT    0.0193
     25 C25          -0.270146    2.961128    2.381194 C.ar     1 SUBUNIT    0.0019
     26 C26           1.015963    3.041183    1.821547 C.ar     1 SUBUNIT    0.0043
     27 C27           1.182953    3.127706    0.433408 C.ar     1 SUBUNIT    0.0027
     28 H28           3.166827    5.608320   -0.724317 H        1 SUBUNIT    0.1499
@<TRIPOS>BOND
     1    1    2 2
     2    2    3 1
     3    2    4 1
     4    3   10 1
     5    4    5 ar
     6    4    9 ar
     7    5    6 ar
     8    6    7 ar
     9    7    8 ar
    10    7   21 1
    11    8    9 ar
    12   11   12 1
    13   11   27 1
    14   12   13 2
    15   12   14 1
    16   14   15 1
    17   14   28 1
    18   15   16 1
    19   15   17 1
    20   15   18 1
    21   19   20 2
    22   19   23 1
    23   20   21 1
    24   21   22 1
    25   22   23 ar
    26   22   24 ar
    27   23   27 ar
    28   24   25 ar
    29   25   26 ar
    30   26   27 ar
@<SCITEGIC>ATOM_PROPERTY
Formal Charge
SciTegic.value.StringValue
1 0
2 0
3 0
4 0
5 0
6 0
7 0
8 0
9 0
10 0
11 0
12 0
13 0
14 0
15 0
16 0
17 0
18 0
19 0
20 0
21 0
22 0
23 0
24 0
25 0
26 0
27 0
28 0

@<SCITEGIC>ATOM_PROPERTY
pdb_tempFactor
SciTegic.value.DoubleValue
1 0.00
2 0.00
3 0.00
4 0.00
5 0.00
6 0.00
7 0.00
8 0.00
9 0.00
10 0.00
11 0.00
12 0.00
13 0.00
14 0.00
15 0.00
16 0.00
17 0.00
18 0.00
19 0.00
20 0.00
21 0.00
22 0.00
23 0.00
24 0.00
25 0.00
26 0.00
27 0.00
28 0.00

@<SCITEGIC>ATOM_PROPERTY
pdb_occupancy
SciTegic.value.DoubleValue
1 1.00
2 1.00
3 1.00
4 1.00
5 1.00
6 1.00
7 1.00
8 1.00
9 1.00
10 1.00
11 1.00
12 1.00
13 1.00
14 1.00
15 1.00
16 1.00
17 1.00
18 1.00
19 1.00
20 1.00
21 1.00
22 1.00
23 1.00
24 1.00
25 1.00
26 1.00
27 1.00
28 1.00

#	Copyright 2023 drugdesign.org
#	Creation time:	2024-01-11T10:52:06Z

@<SCITEGIC>ROOT_PROPERTY
Ligand:MaximumNumberOfAtoms
SciTegic.value.IntegerValue
100

@<SCITEGIC>ROOT_PROPERTY
Ligand:HydrogenAtomsCountTowardsMaximum
SciTegic.value.BooleanValue
FALSE

@<TRIPOS>MOLECULE
Molecule
    0     0     0 0 0
SMALL
USER_CHARGES


