#	Copyright 2023 drugdesign.org
#	Creation time:	2024-01-11T10:52:05Z

@<SCITEGIC>ROOT_PROPERTY
Ligand:MaximumNumberOfAtoms
SciTegic.value.IntegerValue
100

@<SCITEGIC>ROOT_PROPERTY
Ligand:HydrogenAtomsCountTowardsMaximum
SciTegic.value.BooleanValue
FALSE

@<TRIPOS>MOLECULE
pkc8
   56    59     0 0 0
SMALL
USER_CHARGES


@<TRIPOS>ATOM
      1 S1            0.904300   -1.511500   -1.359700 S.o2     1 SUBUNIT    1.4171
      2 N2            1.000800   -3.157600   -1.198100 N.pl3    1 SUBUNIT   -0.3601
      3 C3            2.299200   -3.720600   -0.778600 C.3      1 SUBUNIT   -0.0443
      4 C4            2.234700   -5.171300   -0.284800 C.3      1 SUBUNIT   -0.1292
      5 O5            3.525200   -5.527600    0.155000 O.3      1 SUBUNIT    1.3105
      6 C6           -0.102000   -3.965700   -1.741100 C.3      1 SUBUNIT   -0.0443
      7 C7            0.137800   -4.328900   -3.210600 C.3      1 SUBUNIT   -0.1292
      8 O8           -0.901600   -5.191800   -3.608800 O.3      1 SUBUNIT    1.3105
      9 O9           -0.044900   -1.245600   -2.345000 O.2      1 SUBUNIT   -0.5684
     10 O10           2.209700   -1.024000   -1.387600 O.2      1 SUBUNIT   -0.5684
     11 C11           0.217700   -0.903700    0.113400 C.2      1 SUBUNIT   -0.0399
     12 C12          -0.058100    0.463600    0.226000 C.2      1 SUBUNIT   -0.0533
     13 C13          -0.621400    1.003000    1.388100 C.2      1 SUBUNIT    0.0176
     14 C14          -0.881100    0.149500    2.465300 C.2      1 SUBUNIT   -0.0440
     15 C15          -0.609900   -1.214800    2.369400 C.2      1 SUBUNIT   -0.0619
     16 C16          -0.066800   -1.740900    1.197200 C.2      1 SUBUNIT   -0.0716
     17 N17          -0.890500    2.310400    1.538300 N.pl3    1 SUBUNIT   -0.2584
     18 H18          -1.429900    2.560300    2.376500 H        1 SUBUNIT    0.1342
     19 C19          -0.422700    3.315100    0.780800 C.2      1 SUBUNIT    0.0308
     20 C20          -0.244200    3.103100   -0.588800 C.2      1 SUBUNIT   -0.0446
     21 C21           0.236900    4.118600   -1.407900 C.2      1 SUBUNIT   -0.0783
     22 C22           0.549500    5.383400   -0.903100 C.2      1 SUBUNIT   -0.1317
     23 C23           0.348600    5.610600    0.472600 C.2      1 SUBUNIT    0.0171
     24 C24          -0.142000    4.588000    1.306400 C.2      1 SUBUNIT    0.0503
     25 C25          -0.350700    4.829300    2.674200 C.2      1 SUBUNIT    0.1956
     26 O26          -0.788600    3.984200    3.425000 O.2      1 SUBUNIT   -0.2885
     27 C27           0.642300    6.878300    1.006600 C.2      1 SUBUNIT    0.1925
     28 O28           1.065700    7.786100    0.326400 O.2      1 SUBUNIT   -0.2886
     29 C29          -0.054100    6.094000    3.199800 C.2      1 SUBUNIT    0.0337
     30 C30           0.439300    7.108900    2.373900 C.2      1 SUBUNIT    0.0336
     31 C31           0.727800    8.365600    2.922300 C.2      1 SUBUNIT   -0.0503
     32 C32           0.528100    8.614300    4.280400 C.2      1 SUBUNIT   -0.0615
     33 C33           0.035400    7.603400    5.103300 C.2      1 SUBUNIT   -0.0615
     34 C34          -0.253600    6.350300    4.562900 C.2      1 SUBUNIT   -0.0503
     35 O35           1.021700    6.340700   -1.756000 O.3      1 SUBUNIT    1.3280
     36 H36           1.099500    6.004700   -2.666000 H        1 SUBUNIT   -0.1400
     37 H37           3.505900   -6.412800    0.485600 H        1 SUBUNIT   -0.1460
     38 H38          -0.808700   -5.378900   -4.530900 H        1 SUBUNIT   -0.1460
     39 H39           3.014300   -3.647900   -1.634300 H        1 SUBUNIT    0.0386
     40 H40           2.704400   -3.116500    0.070100 H        1 SUBUNIT    0.0386
     41 H41           1.532100   -5.279900    0.579000 H        1 SUBUNIT    0.0022
     42 H42           1.946400   -5.880900   -1.099000 H        1 SUBUNIT    0.0022
     43 H45          -0.189000   -4.901900   -1.142600 H        1 SUBUNIT    0.0386
     44 H46          -1.088600   -3.460500   -1.601300 H        1 SUBUNIT    0.0386
     45 H47           0.121200   -3.429400   -3.873500 H        1 SUBUNIT    0.0022
     46 H48           1.109400   -4.864200   -3.349300 H        1 SUBUNIT    0.0022
     47 H51           0.187600    1.131900   -0.618200 H        1 SUBUNIT    0.0626
     48 H52          -1.312500    0.546200    3.401800 H        1 SUBUNIT    0.0639
     49 H53          -0.826400   -1.880300    3.224300 H        1 SUBUNIT    0.0623
     50 H54           0.133500   -2.825400    1.158300 H        1 SUBUNIT    0.0609
     51 H55          -0.489700    2.133000   -1.056000 H        1 SUBUNIT    0.0639
     52 H56           0.370500    3.913900   -2.484800 H        1 SUBUNIT    0.0607
     53 H57           1.118400    9.192300    2.303000 H        1 SUBUNIT    0.0631
     54 H58           0.758300    9.608100    4.703500 H        1 SUBUNIT    0.0623
     55 H59          -0.124900    7.795400    6.179100 H        1 SUBUNIT    0.0623
     56 H60          -0.642000    5.575700    5.247700 H        1 SUBUNIT    0.0631
@<TRIPOS>BOND
     1    1   11 1
     2    1    2 1
     3    1    9 2
     4    1   10 2
     5    2    3 1
     6    2    6 1
     7    3    4 1
     8    3   39 1
     9    3   40 1
    10    4    5 1
    11    4   41 1
    12    4   42 1
    13    5   37 1
    14    6    7 1
    15    6   43 1
    16    6   44 1
    17    7    8 1
    18    7   45 1
    19    7   46 1
    20    8   38 1
    21   11   12 2
    22   11   16 1
    23   12   13 1
    24   12   47 1
    25   13   14 2
    26   13   17 1
    27   14   15 1
    28   14   48 1
    29   15   16 2
    30   15   49 1
    31   16   50 1
    32   17   18 1
    33   17   19 1
    34   19   20 2
    35   19   24 1
    36   20   21 1
    37   20   51 1
    38   21   22 2
    39   21   52 1
    40   22   23 1
    41   22   35 1
    42   23   24 2
    43   23   27 1
    44   24   25 1
    45   25   26 2
    46   25   29 1
    47   27   28 2
    48   27   30 1
    49   29   30 2
    50   29   34 1
    51   30   31 1
    52   31   32 2
    53   31   53 1
    54   32   33 1
    55   32   54 1
    56   33   34 2
    57   33   55 1
    58   34   56 1
    59   35   36 1
@<SCITEGIC>ATOM_PROPERTY
Formal Charge
SciTegic.value.StringValue
1 0
2 0
3 0
4 0
5 0
6 0
7 0
8 0
9 0
10 0
11 0
12 0
13 0
14 0
15 0
16 0
17 0
18 0
19 0
20 0
21 0
22 0
23 0
24 0
25 0
26 0
27 0
28 0
29 0
30 0
31 0
32 0
33 0
34 0
35 0
36 0
37 0
38 0
39 0
40 0
41 0
42 0
43 0
44 0
45 0
46 0
47 0
48 0
49 0
50 0
51 0
52 0
53 0
54 0
55 0
56 0

@<SCITEGIC>ATOM_PROPERTY
pdb_tempFactor
SciTegic.value.DoubleValue
1 0.00
2 0.00
3 0.00
4 0.00
5 0.00
6 0.00
7 0.00
8 0.00
9 0.00
10 0.00
11 0.00
12 0.00
13 0.00
14 0.00
15 0.00
16 0.00
17 0.00
18 0.00
19 0.00
20 0.00
21 0.00
22 0.00
23 0.00
24 0.00
25 0.00
26 0.00
27 0.00
28 0.00
29 0.00
30 0.00
31 0.00
32 0.00
33 0.00
34 0.00
35 0.00
36 0.00
37 0.00
38 0.00
39 0.00
40 0.00
41 0.00
42 0.00
43 0.00
44 0.00
45 0.00
46 0.00
47 0.00
48 0.00
49 0.00
50 0.00
51 0.00
52 0.00
53 0.00
54 0.00
55 0.00
56 0.00

@<SCITEGIC>ATOM_PROPERTY
pdb_occupancy
SciTegic.value.DoubleValue
1 1.00
2 1.00
3 1.00
4 1.00
5 1.00
6 1.00
7 1.00
8 1.00
9 1.00
10 1.00
11 1.00
12 1.00
13 1.00
14 1.00
15 1.00
16 1.00
17 1.00
18 1.00
19 1.00
20 1.00
21 1.00
22 1.00
23 1.00
24 1.00
25 1.00
26 1.00
27 1.00
28 1.00
29 1.00
30 1.00
31 1.00
32 1.00
33 1.00
34 1.00
35 1.00
36 1.00
37 1.00
38 1.00
39 1.00
40 1.00
41 1.00
42 1.00
43 1.00
44 1.00
45 1.00
46 1.00
47 1.00
48 1.00
49 1.00
50 1.00
51 1.00
52 1.00
53 1.00
54 1.00
55 1.00
56 1.00

#	Copyright 2023 drugdesign.org
#	Creation time:	2024-01-11T10:52:05Z

@<SCITEGIC>ROOT_PROPERTY
Ligand:MaximumNumberOfAtoms
SciTegic.value.IntegerValue
100

@<SCITEGIC>ROOT_PROPERTY
Ligand:HydrogenAtomsCountTowardsMaximum
SciTegic.value.BooleanValue
FALSE

@<TRIPOS>MOLECULE
phorbol
   38    41     0 0 0
SMALL
USER_CHARGES


@<TRIPOS>ATOM
      1 O1           -1.374600   -5.968400   -4.119400 O.2      1 SUBUNIT   -0.2912
      2 C2           -1.324500   -3.595000   -4.567600 C.2      1 SUBUNIT   -0.0084
      3 C3           -1.181700   -4.813600   -3.739900 C.2      1 SUBUNIT    0.1903
      4 C4           -0.847700   -2.522300   -3.930800 C.2      1 SUBUNIT   -0.0101
      5 C5           -0.754100   -4.385200   -2.322400 C.3      1 SUBUNIT    0.1397
      6 C6           -0.287700   -2.910200   -2.575200 C.3      1 SUBUNIT    0.0848
      7 C7           -0.405700   -1.873400   -1.413900 C.3      1 SUBUNIT    0.0835
      8 C8            0.216100   -2.457700   -0.111200 C.3      1 SUBUNIT    0.0511
      9 C9            1.425800   -3.375100   -0.303700 C.2      1 SUBUNIT   -0.0185
     10 C10           1.520800   -4.539300   -0.975400 C.2      1 SUBUNIT   -0.0452
     11 C11           0.445100   -5.241100   -1.814700 C.3      1 SUBUNIT    0.0772
     12 C12          -1.856200   -1.414700   -1.074400 C.3      1 SUBUNIT    0.0721
     13 C13          -1.844300   -0.266800   -0.025900 C.3      1 SUBUNIT    0.1647
     14 C14          -0.785200   -0.374700    1.143100 C.3      1 SUBUNIT    0.1142
     15 C15           0.385100   -1.412400    1.018300 C.3      1 SUBUNIT    0.0435
     16 C16          -0.638900   -1.525100    2.188100 C.3      1 SUBUNIT    0.0037
     17 C17          -0.053000   -1.083200    3.554700 C.3      1 SUBUNIT    0.0145
     18 C18          -1.866100   -2.466300    2.352900 C.3      1 SUBUNIT    0.0145
     19 O19          -0.337800    0.915900    1.657500 O.3      1 SUBUNIT   -0.3056
     20 C20          -0.025100    1.855200    0.752800 C.2      1 SUBUNIT    0.2614
     21 O21          -0.117500    1.680500   -0.463900 O.2      1 SUBUNIT   -0.2666
     22 O22          -3.204200   -0.066500    0.452000 O.3      1 SUBUNIT   -0.3094
     23 C23          -3.570400    1.130300    0.918400 C.2      1 SUBUNIT    0.2612
     24 O24          -2.846100    2.124700    0.915500 O.2      1 SUBUNIT   -0.2666
     25 C25          -5.003100    1.169300    1.462100 C.3      1 SUBUNIT    0.1080
     26 C26          -5.445700    2.548000    2.009700 C.3      1 SUBUNIT    0.0070
     27 C27          -6.893600    2.537400    2.546600 C.3      1 SUBUNIT    0.0043
     28 C28           0.473500    3.172800    1.356900 C.3      1 SUBUNIT    0.1080
     29 C29           0.830100    4.263800    0.316100 C.3      1 SUBUNIT    0.0070
     30 C30           1.326800    5.571800    0.969400 C.3      1 SUBUNIT    0.0043
     31 O31           0.389800   -0.759600   -1.906100 O.3      1 SUBUNIT   -0.3884
     32 O32          -1.894500   -4.491700   -1.444200 O.3      1 SUBUNIT   -0.3806
     33 C33           2.809400   -5.347300   -0.993700 C.3      1 SUBUNIT    0.1866
     34 O34           3.563500   -5.237000    0.226700 O.3      1 SUBUNIT   -0.3920
     35 H35           3.628300   -6.100100    0.632900 H        1 SUBUNIT    0.2105
     36 H36          -2.180500   -5.402800   -1.386400 H        1 SUBUNIT    0.2116
     37 H37          -0.148800   -0.062800   -2.294900 H        1 SUBUNIT    0.2109
     38 C38          -1.970200   -3.681100   -5.938100 C.3      1 SUBUNIT    0.0478
@<TRIPOS>BOND
     1    1    3 2
     2    2    4 2
     3    2    3 1
     4    2   38 1
     5    3    5 1
     6    4    6 1
     7    5    6 1
     8    5   11 1
     9    5   32 1
    10    6    7 1
    11    7    8 1
    12    7   12 1
    13    7   31 1
    14    8    9 1
    15    8   15 1
    16    9   10 2
    17   10   11 1
    18   10   33 1
    19   12   13 1
    20   13   14 1
    21   13   22 1
    22   14   15 1
    23   14   16 1
    24   14   19 1
    25   15   16 1
    26   16   17 1
    27   16   18 1
    28   19   20 1
    29   20   21 2
    30   20   28 1
    31   22   23 1
    32   23   24 2
    33   23   25 1
    34   25   26 1
    35   26   27 1
    36   28   29 1
    37   29   30 1
    38   31   37 1
    39   32   36 1
    40   33   34 1
    41   34   35 1
@<SCITEGIC>ATOM_PROPERTY
Formal Charge
SciTegic.value.StringValue
1 0
2 0
3 0
4 0
5 0
6 0
7 0
8 0
9 0
10 0
11 0
12 0
13 0
14 0
15 0
16 0
17 0
18 0
19 0
20 0
21 0
22 0
23 0
24 0
25 0
26 0
27 0
28 0
29 0
30 0
31 0
32 0
33 0
34 0
35 0
36 0
37 0
38 0

@<SCITEGIC>ATOM_PROPERTY
pdb_tempFactor
SciTegic.value.DoubleValue
1 0.00
2 0.00
3 0.00
4 0.00
5 0.00
6 0.00
7 0.00
8 0.00
9 0.00
10 0.00
11 0.00
12 0.00
13 0.00
14 0.00
15 0.00
16 0.00
17 0.00
18 0.00
19 0.00
20 0.00
21 0.00
22 0.00
23 0.00
24 0.00
25 0.00
26 0.00
27 0.00
28 0.00
29 0.00
30 0.00
31 0.00
32 0.00
33 0.00
34 0.00
35 0.00
36 0.00
37 0.00
38 0.00

@<SCITEGIC>ATOM_PROPERTY
pdb_occupancy
SciTegic.value.DoubleValue
1 1.00
2 1.00
3 1.00
4 1.00
5 1.00
6 1.00
7 1.00
8 1.00
9 1.00
10 1.00
11 1.00
12 1.00
13 1.00
14 1.00
15 1.00
16 1.00
17 1.00
18 1.00
19 1.00
20 1.00
21 1.00
22 1.00
23 1.00
24 1.00
25 1.00
26 1.00
27 1.00
28 1.00
29 1.00
30 1.00
31 1.00
32 1.00
33 1.00
34 1.00
35 1.00
36 1.00
37 1.00
38 1.00

