#	Copyright 2023 drugdesign.org
#	Creation time:	2024-01-11T10:51:56Z

@<SCITEGIC>ROOT_PROPERTY
Ligand:MaximumNumberOfAtoms
SciTegic.value.IntegerValue
100

@<SCITEGIC>ROOT_PROPERTY
Ligand:HydrogenAtomsCountTowardsMaximum
SciTegic.value.BooleanValue
FALSE

@<TRIPOS>MOLECULE
Molecule
   21    21     0 0 0
SMALL
USER_CHARGES


@<TRIPOS>ATOM
      1 C1           -5.273478    5.726541   -0.087889 C.2      1 SUBUNIT    0.1465
      2 C2           -3.938602    5.128933    0.247502 C.3      1 SUBUNIT    0.0115
      3 C3           -3.767473    3.690933   -0.224593 C.3      1 SUBUNIT   -0.0204
      4 C4           -5.007795    2.897628    0.218637 C.3      1 SUBUNIT   -0.0011
      5 N5           -6.180070    3.457895   -0.494646 N.3      1 SUBUNIT   -0.3097
      6 C6           -6.492102    4.844859   -0.110204 C.3      1 SUBUNIT    0.0546
      7 O13          -5.402425    6.949347   -0.183704 O.2      1 SUBUNIT   -0.2982
      8 H15          -3.227818    5.687044   -0.180631 H        1 SUBUNIT    0.0350
      9 H17          -3.825773    5.149192    1.240910 H        1 SUBUNIT    0.0350
     10 H19          -4.896065    1.932013   -0.016100 H        1 SUBUNIT    0.0431
     11 H21          -5.134948    2.988499    1.206348 H        1 SUBUNIT    0.0431
     12 H23          -5.981440    3.428443   -1.502108 H        1 SUBUNIT    0.1226
     13 H25          -7.146573    5.219671   -0.766849 H        1 SUBUNIT    0.0510
     14 H27          -6.900616    4.839998    0.802534 H        1 SUBUNIT    0.0510
     15 C29          -2.472577    2.968093    0.358692 C.3      1 SUBUNIT   -0.0333
     16 H31          -3.657784    3.717155   -1.218213 H        1 SUBUNIT    0.0321
     17 N33          -1.023271    3.499266   -0.053420 N.3      1 SUBUNIT    0.0065
     18 H35          -2.531122    3.026088    1.355290 H        1 SUBUNIT    0.0286
     19 H37          -2.522328    2.010005    0.076577 H        1 SUBUNIT    0.0286
     20 H39          -0.323847    2.942103    0.394120 H        1 SUBUNIT    0.0465
     21 H41          -0.923168    4.452209    0.232823 H        1 SUBUNIT    0.0000
@<TRIPOS>BOND
     1    1    2 1
     2    2    3 1
     3    3    4 1
     4    4    5 1
     5    5    6 1
     6    6    1 1
     7    1    7 2
     8    2    8 1
     9    2    9 1
    10    4   10 1
    11    4   11 1
    12    5   12 1
    13    6   13 1
    14    6   14 1
    15    3   15 1
    16    3   16 1
    17   15   17 1
    18   15   18 1
    19   15   19 1
    20   17   20 1
    21   17   21 1
@<SCITEGIC>ATOM_PROPERTY
Formal Charge
SciTegic.value.StringValue
1 0
2 0
3 0
4 0
5 0
6 0
7 0
8 0
9 0
10 0
11 0
12 0
13 0
14 0
15 0
16 0
17 0
18 0
19 0
20 0
21 0

@<SCITEGIC>ATOM_PROPERTY
pdb_tempFactor
SciTegic.value.DoubleValue
1 0.00
2 0.00
3 0.00
4 0.00
5 0.00
6 0.00
7 0.00
8 0.00
9 0.00
10 0.00
11 0.00
12 0.00
13 0.00
14 0.00
15 0.00
16 0.00
17 0.00
18 0.00
19 0.00
20 0.00
21 0.00

@<SCITEGIC>ATOM_PROPERTY
pdb_occupancy
SciTegic.value.DoubleValue
1 1.00
2 1.00
3 1.00
4 1.00
5 1.00
6 1.00
7 1.00
8 1.00
9 1.00
10 1.00
11 1.00
12 1.00
13 1.00
14 1.00
15 1.00
16 1.00
17 1.00
18 1.00
19 1.00
20 1.00
21 1.00

#	Copyright 2023 drugdesign.org
#	Creation time:	2024-01-11T10:51:56Z

@<SCITEGIC>ROOT_PROPERTY
Ligand:MaximumNumberOfAtoms
SciTegic.value.IntegerValue
100

@<SCITEGIC>ROOT_PROPERTY
Ligand:HydrogenAtomsCountTowardsMaximum
SciTegic.value.BooleanValue
FALSE

@<TRIPOS>MOLECULE
Molecule
   24    24     0 0 0
SMALL
USER_CHARGES


@<TRIPOS>ATOM
      1 C1           -5.273478    5.726541   -0.087889 C.2      1 SUBUNIT    0.1465
      2 C2           -3.938602    5.128933    0.247502 C.3      1 SUBUNIT    0.0115
      3 C3           -3.767473    3.690933   -0.224593 C.3      1 SUBUNIT   -0.0204
      4 C4           -5.007795    2.897628    0.218637 C.3      1 SUBUNIT   -0.0011
      5 N5           -6.180070    3.457895   -0.494646 N.3      1 SUBUNIT   -0.3097
      6 C6           -6.492102    4.844859   -0.110204 C.3      1 SUBUNIT    0.0546
      7 O13          -5.402425    6.949347   -0.183704 O.2      1 SUBUNIT   -0.2982
      8 H15          -3.227818    5.687044   -0.180631 H        1 SUBUNIT    0.0350
      9 H17          -3.825773    5.149192    1.240910 H        1 SUBUNIT    0.0350
     10 H19          -4.896065    1.932013   -0.016100 H        1 SUBUNIT    0.0431
     11 H21          -5.134948    2.988499    1.206348 H        1 SUBUNIT    0.0431
     12 H23          -5.981440    3.428443   -1.502108 H        1 SUBUNIT    0.1226
     13 H25          -7.146573    5.219671   -0.766849 H        1 SUBUNIT    0.0510
     14 H27          -6.900616    4.839998    0.802534 H        1 SUBUNIT    0.0510
     15 C29          -2.472577    2.968093    0.358692 C.3      1 SUBUNIT   -0.0333
     16 H31          -3.657784    3.717155   -1.218213 H        1 SUBUNIT    0.0321
     17 C33          -1.023271    3.499266   -0.053420 C.3      1 SUBUNIT    0.0065
     18 H35          -2.531122    3.026088    1.355290 H        1 SUBUNIT    0.0286
     19 H37          -2.522328    2.010005    0.076577 H        1 SUBUNIT    0.0286
     20 N39          -0.027923    2.565908    0.533693 N.3      1 SUBUNIT   -0.3170
     21 H41          -0.934103    3.512464   -1.049349 H        1 SUBUNIT    0.0465
     22 H43          -0.881642    4.421378    0.306651 H        1 SUBUNIT    0.0000
     23 H45           0.894785    2.868579    0.295118 H        1 SUBUNIT    0.0000
     24 H47          -0.179999    1.645645    0.173079 H        1 SUBUNIT    0.0000
@<TRIPOS>BOND
     1    1    2 1
     2    2    3 1
     3    3    4 1
     4    4    5 1
     5    5    6 1
     6    6    1 1
     7    1    7 2
     8    2    8 1
     9    2    9 1
    10    4   10 1
    11    4   11 1
    12    5   12 1
    13    6   13 1
    14    6   14 1
    15    3   15 1
    16    3   16 1
    17   15   17 1
    18   15   18 1
    19   15   19 1
    20   17   20 1
    21   17   21 1
    22   17   22 1
    23   20   23 1
    24   20   24 1
@<SCITEGIC>ATOM_PROPERTY
Formal Charge
SciTegic.value.StringValue
1 0
2 0
3 0
4 0
5 0
6 0
7 0
8 0
9 0
10 0
11 0
12 0
13 0
14 0
15 0
16 0
17 0
18 0
19 0
20 0
21 0
22 0
23 0
24 0

@<SCITEGIC>ATOM_PROPERTY
pdb_tempFactor
SciTegic.value.DoubleValue
1 0.00
2 0.00
3 0.00
4 0.00
5 0.00
6 0.00
7 0.00
8 0.00
9 0.00
10 0.00
11 0.00
12 0.00
13 0.00
14 0.00
15 0.00
16 0.00
17 0.00
18 0.00
19 0.00
20 0.00
21 0.00
22 0.00
23 0.00
24 0.00

@<SCITEGIC>ATOM_PROPERTY
pdb_occupancy
SciTegic.value.DoubleValue
1 1.00
2 1.00
3 1.00
4 1.00
5 1.00
6 1.00
7 1.00
8 1.00
9 1.00
10 1.00
11 1.00
12 1.00
13 1.00
14 1.00
15 1.00
16 1.00
17 1.00
18 1.00
19 1.00
20 1.00
21 1.00
22 1.00
23 1.00
24 1.00

#	Copyright 2023 drugdesign.org
#	Creation time:	2024-01-11T10:51:57Z

@<SCITEGIC>ROOT_PROPERTY
Ligand:MaximumNumberOfAtoms
SciTegic.value.IntegerValue
100

@<SCITEGIC>ROOT_PROPERTY
Ligand:HydrogenAtomsCountTowardsMaximum
SciTegic.value.BooleanValue
FALSE

@<TRIPOS>MOLECULE
Molecule
   27    27     0 0 0
SMALL
USER_CHARGES


@<TRIPOS>ATOM
      1 C1           -5.273478    5.726541   -0.087889 C.2      1 SUBUNIT    0.1465
      2 C2           -3.938602    5.128933    0.247502 C.3      1 SUBUNIT    0.0115
      3 C3           -3.767473    3.690933   -0.224593 C.3      1 SUBUNIT   -0.0204
      4 C4           -5.007795    2.897628    0.218637 C.3      1 SUBUNIT   -0.0011
      5 N5           -6.180070    3.457895   -0.494646 N.3      1 SUBUNIT   -0.3097
      6 C6           -6.492102    4.844859   -0.110204 C.3      1 SUBUNIT    0.0546
      7 O13          -5.402425    6.949347   -0.183704 O.2      1 SUBUNIT   -0.2982
      8 H15          -3.227818    5.687044   -0.180631 H        1 SUBUNIT    0.0350
      9 H17          -3.825773    5.149192    1.240910 H        1 SUBUNIT    0.0350
     10 H19          -4.896065    1.932013   -0.016100 H        1 SUBUNIT    0.0431
     11 H21          -5.134948    2.988499    1.206348 H        1 SUBUNIT    0.0431
     12 H23          -5.981440    3.428443   -1.502108 H        1 SUBUNIT    0.1226
     13 H25          -7.146573    5.219671   -0.766849 H        1 SUBUNIT    0.0510
     14 H27          -6.900616    4.839998    0.802534 H        1 SUBUNIT    0.0510
     15 C29          -2.472577    2.968093    0.358692 C.3      1 SUBUNIT   -0.0333
     16 H31          -3.657784    3.717155   -1.218213 H        1 SUBUNIT    0.0321
     17 C33          -1.023271    3.499266   -0.053420 C.3      1 SUBUNIT    0.0065
     18 H35          -2.531122    3.026088    1.355290 H        1 SUBUNIT    0.0286
     19 H37          -2.522328    2.010005    0.076577 H        1 SUBUNIT    0.0286
     20 C39          -0.027923    2.565908    0.533693 C.3      1 SUBUNIT   -0.3170
     21 H41          -0.934103    3.512464   -1.049349 H        1 SUBUNIT    0.0465
     22 N43           1.374651    3.025987    0.171044 N.3      1 SUBUNIT    0.1221
     23 H45          -0.881642    4.421378    0.306651 H        1 SUBUNIT    0.0000
     24 H47          -0.179999    1.645645    0.173079 H        1 SUBUNIT    0.0000
     25 H49          -0.127554    2.554290    1.528678 H        1 SUBUNIT    0.0000
     26 H51           2.044686    2.397681    0.566269 H        1 SUBUNIT    0.0000
     27 H53           1.527875    3.946016    0.531772 H        1 SUBUNIT    0.0000
@<TRIPOS>BOND
     1    1    2 1
     2    2    3 1
     3    3    4 1
     4    4    5 1
     5    5    6 1
     6    6    1 1
     7    1    7 2
     8    2    8 1
     9    2    9 1
    10    4   10 1
    11    4   11 1
    12    5   12 1
    13    6   13 1
    14    6   14 1
    15    3   15 1
    16    3   16 1
    17   15   17 1
    18   15   18 1
    19   15   19 1
    20   17   20 1
    21   17   21 1
    22   20   22 1
    23   17   23 1
    24   20   24 1
    25   20   25 1
    26   22   26 1
    27   22   27 1
@<SCITEGIC>ATOM_PROPERTY
Formal Charge
SciTegic.value.StringValue
1 0
2 0
3 0
4 0
5 0
6 0
7 0
8 0
9 0
10 0
11 0
12 0
13 0
14 0
15 0
16 0
17 0
18 0
19 0
20 0
21 0
22 0
23 0
24 0
25 0
26 0
27 0

@<SCITEGIC>ATOM_PROPERTY
pdb_tempFactor
SciTegic.value.DoubleValue
1 0.00
2 0.00
3 0.00
4 0.00
5 0.00
6 0.00
7 0.00
8 0.00
9 0.00
10 0.00
11 0.00
12 0.00
13 0.00
14 0.00
15 0.00
16 0.00
17 0.00
18 0.00
19 0.00
20 0.00
21 0.00
22 0.00
23 0.00
24 0.00
25 0.00
26 0.00
27 0.00

@<SCITEGIC>ATOM_PROPERTY
pdb_occupancy
SciTegic.value.DoubleValue
1 1.00
2 1.00
3 1.00
4 1.00
5 1.00
6 1.00
7 1.00
8 1.00
9 1.00
10 1.00
11 1.00
12 1.00
13 1.00
14 1.00
15 1.00
16 1.00
17 1.00
18 1.00
19 1.00
20 1.00
21 1.00
22 1.00
23 1.00
24 1.00
25 1.00
26 1.00
27 1.00

#	Copyright 2023 drugdesign.org
#	Creation time:	2024-01-11T10:51:57Z

@<SCITEGIC>ROOT_PROPERTY
Ligand:MaximumNumberOfAtoms
SciTegic.value.IntegerValue
100

@<SCITEGIC>ROOT_PROPERTY
Ligand:HydrogenAtomsCountTowardsMaximum
SciTegic.value.BooleanValue
FALSE

@<TRIPOS>MOLECULE
Molecule
   30    30     0 0 0
SMALL
USER_CHARGES


@<TRIPOS>ATOM
      1 C1           -5.273478    5.726541   -0.087889 C.2      1 SUBUNIT    0.1465
      2 C2           -3.938602    5.128933    0.247502 C.3      1 SUBUNIT    0.0115
      3 C3           -3.767473    3.690933   -0.224593 C.3      1 SUBUNIT   -0.0204
      4 C4           -5.007795    2.897628    0.218637 C.3      1 SUBUNIT   -0.0011
      5 N5           -6.180070    3.457895   -0.494646 N.3      1 SUBUNIT   -0.3097
      6 C6           -6.492102    4.844859   -0.110204 C.3      1 SUBUNIT    0.0546
      7 O13          -5.402425    6.949347   -0.183704 O.2      1 SUBUNIT   -0.2982
      8 H15          -3.227818    5.687044   -0.180631 H        1 SUBUNIT    0.0350
      9 H17          -3.825773    5.149192    1.240910 H        1 SUBUNIT    0.0350
     10 H19          -4.896065    1.932013   -0.016100 H        1 SUBUNIT    0.0431
     11 H21          -5.134948    2.988499    1.206348 H        1 SUBUNIT    0.0431
     12 H23          -5.981440    3.428443   -1.502108 H        1 SUBUNIT    0.1226
     13 H25          -7.146573    5.219671   -0.766849 H        1 SUBUNIT    0.0510
     14 H27          -6.900616    4.839998    0.802534 H        1 SUBUNIT    0.0510
     15 C29          -2.472577    2.968093    0.358692 C.3      1 SUBUNIT   -0.0333
     16 H31          -3.657784    3.717155   -1.218213 H        1 SUBUNIT    0.0321
     17 C33          -1.023271    3.499266   -0.053420 C.3      1 SUBUNIT    0.0065
     18 H35          -2.531122    3.026088    1.355290 H        1 SUBUNIT    0.0286
     19 H37          -2.522328    2.010005    0.076577 H        1 SUBUNIT    0.0286
     20 C39          -0.027923    2.565908    0.533693 C.3      1 SUBUNIT   -0.3170
     21 H41          -0.934103    3.512464   -1.049349 H        1 SUBUNIT    0.0465
     22 C43           1.374651    3.025987    0.171044 C.3      1 SUBUNIT    0.1221
     23 H45          -0.881642    4.421378    0.306651 H        1 SUBUNIT    0.0000
     24 H47          -0.179999    1.645645    0.173079 H        1 SUBUNIT    0.0000
     25 H49          -0.127554    2.554290    1.528678 H        1 SUBUNIT    0.0000
     26 N51           2.393146    2.070923    0.771811 N.3      1 SUBUNIT    0.0000
     27 H53           1.527875    3.946016    0.531772 H        1 SUBUNIT    0.0000
     28 H55           1.475429    3.037370   -0.823827 H        1 SUBUNIT    0.0000
     29 H57           3.315854    2.373594    0.533236 H        1 SUBUNIT    0.0000
     30 H59           2.241070    1.150660    0.411196 H        1 SUBUNIT    0.0000
@<TRIPOS>BOND
     1    1    2 1
     2    2    3 1
     3    3    4 1
     4    4    5 1
     5    5    6 1
     6    6    1 1
     7    1    7 2
     8    2    8 1
     9    2    9 1
    10    4   10 1
    11    4   11 1
    12    5   12 1
    13    6   13 1
    14    6   14 1
    15    3   15 1
    16    3   16 1
    17   15   17 1
    18   15   18 1
    19   15   19 1
    20   17   20 1
    21   17   21 1
    22   20   22 1
    23   17   23 1
    24   20   24 1
    25   20   25 1
    26   22   26 1
    27   22   27 1
    28   22   28 1
    29   26   29 1
    30   26   30 1
@<SCITEGIC>ATOM_PROPERTY
Formal Charge
SciTegic.value.StringValue
1 0
2 0
3 0
4 0
5 0
6 0
7 0
8 0
9 0
10 0
11 0
12 0
13 0
14 0
15 0
16 0
17 0
18 0
19 0
20 0
21 0
22 0
23 0
24 0
25 0
26 0
27 0
28 0
29 0
30 0

@<SCITEGIC>ATOM_PROPERTY
pdb_tempFactor
SciTegic.value.DoubleValue
1 0.00
2 0.00
3 0.00
4 0.00
5 0.00
6 0.00
7 0.00
8 0.00
9 0.00
10 0.00
11 0.00
12 0.00
13 0.00
14 0.00
15 0.00
16 0.00
17 0.00
18 0.00
19 0.00
20 0.00
21 0.00
22 0.00
23 0.00
24 0.00
25 0.00
26 0.00
27 0.00
28 0.00
29 0.00
30 0.00

@<SCITEGIC>ATOM_PROPERTY
pdb_occupancy
SciTegic.value.DoubleValue
1 1.00
2 1.00
3 1.00
4 1.00
5 1.00
6 1.00
7 1.00
8 1.00
9 1.00
10 1.00
11 1.00
12 1.00
13 1.00
14 1.00
15 1.00
16 1.00
17 1.00
18 1.00
19 1.00
20 1.00
21 1.00
22 1.00
23 1.00
24 1.00
25 1.00
26 1.00
27 1.00
28 1.00
29 1.00
30 1.00

#	Copyright 2023 drugdesign.org
#	Creation time:	2024-01-11T10:51:58Z

@<SCITEGIC>ROOT_PROPERTY
Ligand:MaximumNumberOfAtoms
SciTegic.value.IntegerValue
100

@<SCITEGIC>ROOT_PROPERTY
Ligand:HydrogenAtomsCountTowardsMaximum
SciTegic.value.BooleanValue
FALSE

@<TRIPOS>MOLECULE
Molecule
   33    33     0 0 0
SMALL
USER_CHARGES


@<TRIPOS>ATOM
      1 C1           -5.273478    5.726541   -0.087889 C.2      1 SUBUNIT    0.1465
      2 C2           -3.938602    5.128933    0.247502 C.3      1 SUBUNIT    0.0115
      3 C3           -3.767473    3.690933   -0.224593 C.3      1 SUBUNIT   -0.0204
      4 C4           -5.007795    2.897628    0.218637 C.3      1 SUBUNIT   -0.0011
      5 N5           -6.180070    3.457895   -0.494646 N.3      1 SUBUNIT   -0.3097
      6 C6           -6.492102    4.844859   -0.110204 C.3      1 SUBUNIT    0.0546
      7 O13          -5.402425    6.949347   -0.183704 O.2      1 SUBUNIT   -0.2982
      8 H15          -3.227818    5.687044   -0.180631 H        1 SUBUNIT    0.0350
      9 H17          -3.825773    5.149192    1.240910 H        1 SUBUNIT    0.0350
     10 H19          -4.896065    1.932013   -0.016100 H        1 SUBUNIT    0.0431
     11 H21          -5.134948    2.988499    1.206348 H        1 SUBUNIT    0.0431
     12 H23          -5.981440    3.428443   -1.502108 H        1 SUBUNIT    0.1226
     13 H25          -7.146573    5.219671   -0.766849 H        1 SUBUNIT    0.0510
     14 H27          -6.900616    4.839998    0.802534 H        1 SUBUNIT    0.0510
     15 C29          -2.472577    2.968093    0.358692 C.3      1 SUBUNIT   -0.0333
     16 H31          -3.657784    3.717155   -1.218213 H        1 SUBUNIT    0.0321
     17 C33          -1.023271    3.499266   -0.053420 C.3      1 SUBUNIT    0.0065
     18 H35          -2.531122    3.026088    1.355290 H        1 SUBUNIT    0.0286
     19 H37          -2.522328    2.010005    0.076577 H        1 SUBUNIT    0.0286
     20 C39          -0.027923    2.565908    0.533693 C.3      1 SUBUNIT   -0.3170
     21 H41          -0.934103    3.512464   -1.049349 H        1 SUBUNIT    0.0465
     22 C43           1.374651    3.025987    0.171044 C.3      1 SUBUNIT    0.1221
     23 H45          -0.881642    4.421378    0.306651 H        1 SUBUNIT    0.0000
     24 H47          -0.179999    1.645645    0.173079 H        1 SUBUNIT    0.0000
     25 H49          -0.127554    2.554290    1.528678 H        1 SUBUNIT    0.0000
     26 C51           2.393146    2.070923    0.771811 C.3      1 SUBUNIT    0.0000
     27 H53           1.527875    3.946016    0.531772 H        1 SUBUNIT    0.0000
     28 H55           1.475429    3.037370   -0.823827 H        1 SUBUNIT    0.0000
     29 N57           3.795720    2.531002    0.409162 N.3      1 SUBUNIT    0.0000
     30 H59           2.241070    1.150660    0.411196 H        1 SUBUNIT    0.0000
     31 H61           2.293516    2.059305    1.766795 H        1 SUBUNIT    0.0000
     32 H63           4.465755    1.902697    0.804386 H        1 SUBUNIT    0.0000
     33 H65           3.948944    3.451031    0.769889 H        1 SUBUNIT    0.0000
@<TRIPOS>BOND
     1    1    2 1
     2    2    3 1
     3    3    4 1
     4    4    5 1
     5    5    6 1
     6    6    1 1
     7    1    7 2
     8    2    8 1
     9    2    9 1
    10    4   10 1
    11    4   11 1
    12    5   12 1
    13    6   13 1
    14    6   14 1
    15    3   15 1
    16    3   16 1
    17   15   17 1
    18   15   18 1
    19   15   19 1
    20   17   20 1
    21   17   21 1
    22   20   22 1
    23   17   23 1
    24   20   24 1
    25   20   25 1
    26   22   26 1
    27   22   27 1
    28   22   28 1
    29   26   29 1
    30   26   30 1
    31   26   31 1
    32   29   32 1
    33   29   33 1
@<SCITEGIC>ATOM_PROPERTY
Formal Charge
SciTegic.value.StringValue
1 0
2 0
3 0
4 0
5 0
6 0
7 0
8 0
9 0
10 0
11 0
12 0
13 0
14 0
15 0
16 0
17 0
18 0
19 0
20 0
21 0
22 0
23 0
24 0
25 0
26 0
27 0
28 0
29 0
30 0
31 0
32 0
33 0

@<SCITEGIC>ATOM_PROPERTY
pdb_tempFactor
SciTegic.value.DoubleValue
1 0.00
2 0.00
3 0.00
4 0.00
5 0.00
6 0.00
7 0.00
8 0.00
9 0.00
10 0.00
11 0.00
12 0.00
13 0.00
14 0.00
15 0.00
16 0.00
17 0.00
18 0.00
19 0.00
20 0.00
21 0.00
22 0.00
23 0.00
24 0.00
25 0.00
26 0.00
27 0.00
28 0.00
29 0.00
30 0.00
31 0.00
32 0.00
33 0.00

@<SCITEGIC>ATOM_PROPERTY
pdb_occupancy
SciTegic.value.DoubleValue
1 1.00
2 1.00
3 1.00
4 1.00
5 1.00
6 1.00
7 1.00
8 1.00
9 1.00
10 1.00
11 1.00
12 1.00
13 1.00
14 1.00
15 1.00
16 1.00
17 1.00
18 1.00
19 1.00
20 1.00
21 1.00
22 1.00
23 1.00
24 1.00
25 1.00
26 1.00
27 1.00
28 1.00
29 1.00
30 1.00
31 1.00
32 1.00
33 1.00

#	Copyright 2023 drugdesign.org
#	Creation time:	2024-01-11T10:51:58Z

@<SCITEGIC>ROOT_PROPERTY
Ligand:MaximumNumberOfAtoms
SciTegic.value.IntegerValue
100

@<SCITEGIC>ROOT_PROPERTY
Ligand:HydrogenAtomsCountTowardsMaximum
SciTegic.value.BooleanValue
FALSE

@<TRIPOS>MOLECULE
Molecule
   36    36     0 0 0
SMALL
USER_CHARGES


@<TRIPOS>ATOM
      1 C1           -5.273478    5.726541   -0.087889 C.2      1 SUBUNIT    0.1465
      2 C2           -3.938602    5.128933    0.247502 C.3      1 SUBUNIT    0.0115
      3 C3           -3.767473    3.690933   -0.224593 C.3      1 SUBUNIT   -0.0204
      4 C4           -5.007795    2.897628    0.218637 C.3      1 SUBUNIT   -0.0011
      5 N5           -6.180070    3.457895   -0.494646 N.3      1 SUBUNIT   -0.3097
      6 C6           -6.492102    4.844859   -0.110204 C.3      1 SUBUNIT    0.0546
      7 O13          -5.402425    6.949347   -0.183704 O.2      1 SUBUNIT   -0.2982
      8 H15          -3.227818    5.687044   -0.180631 H        1 SUBUNIT    0.0350
      9 H17          -3.825773    5.149192    1.240910 H        1 SUBUNIT    0.0350
     10 H19          -4.896065    1.932013   -0.016100 H        1 SUBUNIT    0.0431
     11 H21          -5.134948    2.988499    1.206348 H        1 SUBUNIT    0.0431
     12 H23          -5.981440    3.428443   -1.502108 H        1 SUBUNIT    0.1226
     13 H25          -7.146573    5.219671   -0.766849 H        1 SUBUNIT    0.0510
     14 H27          -6.900616    4.839998    0.802534 H        1 SUBUNIT    0.0510
     15 C29          -2.472577    2.968093    0.358692 C.3      1 SUBUNIT   -0.0333
     16 H31          -3.657784    3.717155   -1.218213 H        1 SUBUNIT    0.0321
     17 C33          -1.023271    3.499266   -0.053420 C.3      1 SUBUNIT    0.0065
     18 H35          -2.531122    3.026088    1.355290 H        1 SUBUNIT    0.0286
     19 H37          -2.522328    2.010005    0.076577 H        1 SUBUNIT    0.0286
     20 C39          -0.027923    2.565908    0.533693 C.3      1 SUBUNIT   -0.3170
     21 H41          -0.934103    3.512464   -1.049349 H        1 SUBUNIT    0.0465
     22 C43           1.374651    3.025987    0.171044 C.3      1 SUBUNIT    0.1221
     23 H45          -0.881642    4.421378    0.306651 H        1 SUBUNIT    0.0000
     24 H47          -0.179999    1.645645    0.173079 H        1 SUBUNIT    0.0000
     25 H49          -0.127554    2.554290    1.528678 H        1 SUBUNIT    0.0000
     26 C51           2.393146    2.070923    0.771811 C.3      1 SUBUNIT    0.0000
     27 H53           1.527875    3.946016    0.531772 H        1 SUBUNIT    0.0000
     28 H55           1.475429    3.037370   -0.823827 H        1 SUBUNIT    0.0000
     29 C57           3.795720    2.531002    0.409162 C.3      1 SUBUNIT    0.0000
     30 H59           2.241070    1.150660    0.411196 H        1 SUBUNIT    0.0000
     31 H61           2.293516    2.059305    1.766795 H        1 SUBUNIT    0.0000
     32 N63           4.814216    1.575938    1.009928 N.3      1 SUBUNIT    0.0000
     33 H65           3.948944    3.451031    0.769889 H        1 SUBUNIT    0.0000
     34 H67           3.896499    2.542385   -0.585710 H        1 SUBUNIT    0.0000
     35 H69           5.736923    1.878609    0.771353 H        1 SUBUNIT    0.0000
     36 H71           4.662139    0.655675    0.649314 H        1 SUBUNIT    0.0000
@<TRIPOS>BOND
     1    1    2 1
     2    2    3 1
     3    3    4 1
     4    4    5 1
     5    5    6 1
     6    6    1 1
     7    1    7 2
     8    2    8 1
     9    2    9 1
    10    4   10 1
    11    4   11 1
    12    5   12 1
    13    6   13 1
    14    6   14 1
    15    3   15 1
    16    3   16 1
    17   15   17 1
    18   15   18 1
    19   15   19 1
    20   17   20 1
    21   17   21 1
    22   20   22 1
    23   17   23 1
    24   20   24 1
    25   20   25 1
    26   22   26 1
    27   22   27 1
    28   22   28 1
    29   26   29 1
    30   26   30 1
    31   26   31 1
    32   29   32 1
    33   29   33 1
    34   29   34 1
    35   32   35 1
    36   32   36 1
@<SCITEGIC>ATOM_PROPERTY
Formal Charge
SciTegic.value.StringValue
1 0
2 0
3 0
4 0
5 0
6 0
7 0
8 0
9 0
10 0
11 0
12 0
13 0
14 0
15 0
16 0
17 0
18 0
19 0
20 0
21 0
22 0
23 0
24 0
25 0
26 0
27 0
28 0
29 0
30 0
31 0
32 0
33 0
34 0
35 0
36 0

@<SCITEGIC>ATOM_PROPERTY
pdb_tempFactor
SciTegic.value.DoubleValue
1 0.00
2 0.00
3 0.00
4 0.00
5 0.00
6 0.00
7 0.00
8 0.00
9 0.00
10 0.00
11 0.00
12 0.00
13 0.00
14 0.00
15 0.00
16 0.00
17 0.00
18 0.00
19 0.00
20 0.00
21 0.00
22 0.00
23 0.00
24 0.00
25 0.00
26 0.00
27 0.00
28 0.00
29 0.00
30 0.00
31 0.00
32 0.00
33 0.00
34 0.00
35 0.00
36 0.00

@<SCITEGIC>ATOM_PROPERTY
pdb_occupancy
SciTegic.value.DoubleValue
1 1.00
2 1.00
3 1.00
4 1.00
5 1.00
6 1.00
7 1.00
8 1.00
9 1.00
10 1.00
11 1.00
12 1.00
13 1.00
14 1.00
15 1.00
16 1.00
17 1.00
18 1.00
19 1.00
20 1.00
21 1.00
22 1.00
23 1.00
24 1.00
25 1.00
26 1.00
27 1.00
28 1.00
29 1.00
30 1.00
31 1.00
32 1.00
33 1.00
34 1.00
35 1.00
36 1.00

