#	Copyright 2023 drugdesign.org
#	Creation time:	2024-01-11T10:52:09Z

@<SCITEGIC>ROOT_PROPERTY
Ligand:MaximumNumberOfAtoms
SciTegic.value.IntegerValue
100

@<SCITEGIC>ROOT_PROPERTY
Ligand:HydrogenAtomsCountTowardsMaximum
SciTegic.value.BooleanValue
FALSE

@<TRIPOS>MOLECULE
5
   16    17     0 0 0
SMALL
USER_CHARGES


@<TRIPOS>ATOM
      1 C1            3.244407   -7.202450   -3.970917 C.3      1 SUBUNIT    0.2063
      2 O2            2.942666   -7.125113   -5.366031 O.3      1 SUBUNIT   -0.3172
      3 C3            3.353736   -5.940484   -6.042742 C.3      1 SUBUNIT    0.2921
      4 C5            3.391991   -5.564598   -7.492264 C.3      1 SUBUNIT    0.2394
      5 O6            3.144359   -6.610250   -8.310023 O.3      1 SUBUNIT   -0.3287
      6 C7            2.277002   -4.651891   -7.723886 C.3      1 SUBUNIT    0.1574
      7 C8            2.985436   -6.301788   -9.710623 C.2      1 SUBUNIT    0.0977
      8 C9            3.128776   -7.356049  -10.584860 C.2      1 SUBUNIT    0.0353
      9 C10           2.580143   -5.027634  -10.086579 C.2      1 SUBUNIT    0.0659
     10 C11           2.844950   -7.123295  -11.896971 C.2      1 SUBUNIT    0.0028
     11 C12           2.435412   -5.867141  -12.285384 C.2      1 SUBUNIT    0.0021
     12 C13           2.297402   -4.820147  -11.402028 C.2      1 SUBUNIT    0.0265
     13 N14           2.591619   -4.168399   -9.057550 N.am     1 SUBUNIT   -0.2659
     14 C15           2.940318   -2.856207   -9.253543 C.2      1 SUBUNIT    0.2193
     15 O16           3.406464   -2.409432  -10.310343 O.2      1 SUBUNIT   -0.2771
     16 C17           3.068200   -1.946123   -8.031613 C.3      1 SUBUNIT    0.1041
@<TRIPOS>BOND
     1    1    2 1
     2    2    3 1
     3    3    4 1
     4    4    5 1
     5    4    6 1
     6    5    7 1
     7    6   13 1
     8    7    8 1
     9    7    9 2
    10    8   10 2
    11    9   12 1
    12    9   13 1
    13   10   11 1
    14   11   12 2
    15   13   14 1
    16   14   15 2
    17   14   16 1
@<SCITEGIC>ATOM_PROPERTY
Formal Charge
SciTegic.value.StringValue
1 0
2 0
3 0
4 0
5 0
6 0
7 0
8 0
9 0
10 0
11 0
12 0
13 0
14 0
15 0
16 0

@<SCITEGIC>ATOM_PROPERTY
pdb_tempFactor
SciTegic.value.DoubleValue
1 0.00
2 0.00
3 0.00
4 0.00
5 0.00
6 0.00
7 0.00
8 0.00
9 0.00
10 0.00
11 0.00
12 0.00
13 0.00
14 0.00
15 0.00
16 0.00

@<SCITEGIC>ATOM_PROPERTY
pdb_occupancy
SciTegic.value.DoubleValue
1 1.00
2 1.00
3 1.00
4 1.00
5 1.00
6 1.00
7 1.00
8 1.00
9 1.00
10 1.00
11 1.00
12 1.00
13 1.00
14 1.00
15 1.00
16 1.00

#	Copyright 2023 drugdesign.org
#	Creation time:	2024-01-11T10:52:09Z

@<SCITEGIC>ROOT_PROPERTY
Ligand:MaximumNumberOfAtoms
SciTegic.value.IntegerValue
100

@<SCITEGIC>ROOT_PROPERTY
Ligand:HydrogenAtomsCountTowardsMaximum
SciTegic.value.BooleanValue
FALSE

@<TRIPOS>MOLECULE
1
   16    16     0 0 0
SMALL
USER_CHARGES


@<TRIPOS>ATOM
      1 C1            3.639000   -7.278600   -2.869300 C.3      1 SUBUNIT    0.1944
      2 O2            3.070800   -7.572400   -4.127200 O.3      1 SUBUNIT   -0.3846
      3 C3            2.659700   -6.363000   -4.746100 C.3      1 SUBUNIT    0.1618
      4 C4            3.524800   -6.062600   -5.970200 C.3      1 SUBUNIT    0.0573
      5 C5            2.710000   -5.752200   -7.219500 C.3      1 SUBUNIT    0.1701
      6 O6            3.515100   -5.174300   -8.238500 O.3      1 SUBUNIT   -0.3452
      7 C7            3.202800   -5.288200   -9.585000 C.2      1 SUBUNIT    0.0875
      8 C8            3.144900   -6.584700  -10.016000 C.2      1 SUBUNIT    0.0341
      9 C9            2.786700   -6.836300  -11.310300 C.2      1 SUBUNIT    0.0027
     10 C10           2.482600   -5.802200  -12.164200 C.2      1 SUBUNIT    0.0010
     11 C11           2.530000   -4.501100  -11.763900 C.2      1 SUBUNIT    0.0162
     12 C12           2.899600   -4.244900  -10.480800 C.2      1 SUBUNIT    0.0673
     13 C13           2.827900   -2.946800  -10.025100 C.2      1 SUBUNIT    0.2456
     14 O14           3.017720   -2.023699  -10.791730 O.2      1 SUBUNIT   -0.2718
     15 N15           2.900721   -2.748044   -8.737882 N.am     1 SUBUNIT   -0.1613
     16 C16           3.338748   -1.481437   -8.212440 C.3      1 SUBUNIT    0.1084
@<TRIPOS>BOND
     1    1    2 1
     2    2    3 1
     3    3    4 1
     4    4    5 1
     5    5    6 1
     6    6    7 1
     7    7    8 1
     8    7   12 2
     9    8    9 2
    10    9   10 1
    11   10   11 2
    12   11   12 1
    13   12   13 1
    14   13   14 2
    15   13   15 1
    16   15   16 1
@<SCITEGIC>ATOM_PROPERTY
Formal Charge
SciTegic.value.StringValue
1 0
2 0
3 0
4 0
5 0
6 0
7 0
8 0
9 0
10 0
11 0
12 0
13 0
14 0
15 0
16 0

@<SCITEGIC>ATOM_PROPERTY
pdb_tempFactor
SciTegic.value.DoubleValue
1 0.00
2 0.00
3 0.00
4 0.00
5 0.00
6 0.00
7 0.00
8 0.00
9 0.00
10 0.00
11 0.00
12 0.00
13 0.00
14 0.00
15 0.00
16 0.00

@<SCITEGIC>ATOM_PROPERTY
pdb_occupancy
SciTegic.value.DoubleValue
1 1.00
2 1.00
3 1.00
4 1.00
5 1.00
6 1.00
7 1.00
8 1.00
9 1.00
10 1.00
11 1.00
12 1.00
13 1.00
14 1.00
15 1.00
16 1.00
