#	Copyright 2023 drugdesign.org
#	Creation time:	2024-01-11T10:51:47Z

@<SCITEGIC>ROOT_PROPERTY
Ligand:MaximumNumberOfAtoms
SciTegic.value.IntegerValue
100

@<SCITEGIC>ROOT_PROPERTY
Ligand:HydrogenAtomsCountTowardsMaximum
SciTegic.value.BooleanValue
FALSE

@<TRIPOS>MOLECULE
staurosporine
   37    44     0 0 0
SMALL
USER_CHARGES


@<TRIPOS>ATOM
      1 H1           -0.695626    3.958011   -1.146518 H        1 SUBUNIT    0.1500
      2 N2           -0.334826    3.164111   -0.899218 N.am     1 SUBUNIT   -0.3071
      3 C3           -1.099826    2.170311   -0.385518 C.2      1 SUBUNIT    0.2442
      4 C4           -0.119026    1.112213   -0.036118 C.ar     1 SUBUNIT    0.0521
      5 C5            1.165474    1.531413   -0.413618 C.ar     1 SUBUNIT   -0.0080
      6 C6            1.122674    2.921211   -1.035418 C.3      1 SUBUNIT    0.1417
      7 O7           -2.322628    2.233311   -0.275618 O.2      1 SUBUNIT   -0.2719
      8 C8           -0.292926   -0.156187    0.577882 C.ar     1 SUBUNIT    0.0164
      9 C9            0.834374   -0.971188    0.774982 C.ar     1 SUBUNIT    0.0522
     10 C10           2.126373   -0.553687    0.387282 C.ar     1 SUBUNIT    0.0521
     11 C11           2.288972    0.706212   -0.202018 C.ar     1 SUBUNIT    0.0091
     12 C12           3.662172    0.882112   -0.467318 C.ar     1 SUBUNIT    0.0023
     13 C13           4.355773   -0.257787   -0.040818 C.ar     1 SUBUNIT    0.0325
     14 N14           3.404472   -1.253787    0.501882 N.ar     1 SUBUNIT   -0.2102
     15 C15           4.332173    1.978711   -1.043718 C.ar     1 SUBUNIT    0.0103
     16 C16           5.736873    1.917512   -1.179318 C.ar     1 SUBUNIT    0.0008
     17 C17           6.447973    0.781812   -0.742318 C.ar     1 SUBUNIT    0.0017
     18 C18           5.761273   -0.310887   -0.165418 C.ar     1 SUBUNIT    0.0211
     19 N19           0.459574   -2.216089    1.403582 N.ar     1 SUBUNIT   -0.2149
     20 C20          -0.982226   -2.115488    1.570082 C.ar     1 SUBUNIT    0.0322
     21 C21          -1.425026   -0.873588    1.084982 C.ar     1 SUBUNIT    0.0027
     22 C22          -2.793528   -0.540787    1.153382 C.ar     1 SUBUNIT    0.0103
     23 C23          -3.693328   -1.479387    1.711082 C.ar     1 SUBUNIT    0.0008
     24 C24          -3.242328   -2.726389    2.189981 C.ar     1 SUBUNIT    0.0017
     25 C25          -1.872427   -3.057589    2.123381 C.ar     1 SUBUNIT    0.0211
     26 C26           1.304674   -3.374389    1.651082 C.3      1 SUBUNIT    0.2014
     27 O27           2.463772   -3.491189    0.773482 O.3      1 SUBUNIT   -0.3381
     28 C28           3.610972   -2.622689    1.055782 C.3      1 SUBUNIT    0.1566
     29 C29           1.677974   -3.562189    3.157681 C.3      1 SUBUNIT    0.0709
     30 C30           3.212072   -3.726089    3.376781 C.3      1 SUBUNIT    0.0904
     31 C31           3.945972   -2.577089    2.607381 C.3      1 SUBUNIT    0.1821
     32 C32           4.725574   -3.403389    0.292882 C.3      1 SUBUNIT    0.0642
     33 N33           3.619772   -3.806189    4.822886 N.3      1 SUBUNIT   -0.3142
     34 H34           4.577573   -3.858389    4.872286 H        1 SUBUNIT    0.1223
     35 C35           3.056972   -4.987388    5.538986 C.3      1 SUBUNIT    0.1013
     36 O36           3.671072   -1.273687    3.201381 O.3      1 SUBUNIT   -0.3753
     37 C37           4.741973   -0.765688    4.043582 C.3      1 SUBUNIT    0.1951
@<TRIPOS>BOND
     1    1    2 1
     2    2    3 1
     3    2    6 1
     4    3    4 1
     5    3    7 2
     6    4    5 ar
     7    4    8 ar
     8    5    6 1
     9    5   11 ar
    10    8    9 ar
    11    8   21 ar
    12    9   10 ar
    13    9   19 ar
    14   10   11 ar
    15   10   14 ar
    16   11   12 ar
    17   12   13 ar
    18   12   15 ar
    19   13   14 ar
    20   13   18 ar
    21   14   28 1
    22   15   16 ar
    23   16   17 ar
    24   17   18 ar
    25   19   20 ar
    26   19   26 1
    27   20   21 ar
    28   20   25 ar
    29   21   22 ar
    30   22   23 ar
    31   23   24 ar
    32   24   25 ar
    33   26   27 1
    34   26   29 1
    35   27   28 1
    36   28   31 1
    37   28   32 1
    38   29   30 1
    39   30   31 1
    40   30   33 1
    41   31   36 1
    42   33   34 1
    43   33   35 1
    44   36   37 1
@<SCITEGIC>ATOM_PROPERTY
Formal Charge
SciTegic.value.StringValue
1 0
2 0
3 0
4 0
5 0
6 0
7 0
8 0
9 0
10 0
11 0
12 0
13 0
14 0
15 0
16 0
17 0
18 0
19 0
20 0
21 0
22 0
23 0
24 0
25 0
26 0
27 0
28 0
29 0
30 0
31 0
32 0
33 0
34 0
35 0
36 0
37 0

@<SCITEGIC>ATOM_PROPERTY
pdb_tempFactor
SciTegic.value.DoubleValue
1 0.00
2 0.00
3 0.00
4 0.00
5 0.00
6 0.00
7 0.00
8 0.00
9 0.00
10 0.00
11 0.00
12 0.00
13 0.00
14 0.00
15 0.00
16 0.00
17 0.00
18 0.00
19 0.00
20 0.00
21 0.00
22 0.00
23 0.00
24 0.00
25 0.00
26 0.00
27 0.00
28 0.00
29 0.00
30 0.00
31 0.00
32 0.00
33 0.00
34 0.00
35 0.00
36 0.00
37 0.00

@<SCITEGIC>ATOM_PROPERTY
pdb_occupancy
SciTegic.value.DoubleValue
1 1.00
2 1.00
3 1.00
4 1.00
5 1.00
6 1.00
7 1.00
8 1.00
9 1.00
10 1.00
11 1.00
12 1.00
13 1.00
14 1.00
15 1.00
16 1.00
17 1.00
18 1.00
19 1.00
20 1.00
21 1.00
22 1.00
23 1.00
24 1.00
25 1.00
26 1.00
27 1.00
28 1.00
29 1.00
30 1.00
31 1.00
32 1.00
33 1.00
34 1.00
35 1.00
36 1.00
37 1.00

#	Copyright 2023 drugdesign.org
#	Creation time:	2024-01-11T10:51:47Z

@<SCITEGIC>ROOT_PROPERTY
Ligand:MaximumNumberOfAtoms
SciTegic.value.IntegerValue
100

@<SCITEGIC>ROOT_PROPERTY
Ligand:HydrogenAtomsCountTowardsMaximum
SciTegic.value.BooleanValue
FALSE

@<TRIPOS>MOLECULE
staurosporine
   28    31     0 0 0
SMALL
USER_CHARGES


@<TRIPOS>ATOM
      1 H1           -0.981162    4.115160   -1.199091 H        1 SUBUNIT    0.1500
      2 N2           -0.575700    3.244600   -0.920300 N.am     1 SUBUNIT   -0.3071
      3 C3           -1.340700    2.250800   -0.406600 C.2      1 SUBUNIT    0.2442
      4 C4           -0.359900    1.192700   -0.057200 C.ar     1 SUBUNIT    0.0521
      5 C5            0.924600    1.611900   -0.434700 C.ar     1 SUBUNIT   -0.0080
      6 C6            0.881800    3.001700   -1.056500 C.2      1 SUBUNIT    0.1417
      7 O7           -2.563500    2.313800   -0.296700 O.2      1 SUBUNIT   -0.2719
      8 C8           -0.533800   -0.075700    0.556800 C.ar     1 SUBUNIT    0.0164
      9 C9            0.593500   -0.890700    0.753900 C.ar     1 SUBUNIT    0.0522
     10 C10           1.885500   -0.473200    0.366200 C.ar     1 SUBUNIT    0.0521
     11 C11           2.048100    0.786700   -0.223100 C.ar     1 SUBUNIT    0.0091
     12 C12           3.421300    0.962600   -0.488400 C.ar     1 SUBUNIT    0.0023
     13 C13           4.114900   -0.177300   -0.061900 C.ar     1 SUBUNIT    0.0325
     14 N14           3.163600   -1.173300    0.480800 N.pl3    1 SUBUNIT   -0.2102
     15 C15           4.091300    2.059200   -1.064800 C.ar     1 SUBUNIT    0.0103
     16 C16           5.496000    1.998000   -1.200400 C.ar     1 SUBUNIT    0.0008
     17 C17           6.207100    0.862300   -0.763400 C.ar     1 SUBUNIT    0.0017
     18 C18           5.520400   -0.230400   -0.186500 C.ar     1 SUBUNIT    0.0211
     19 N19           0.218700   -2.135600    1.382500 N.pl3    1 SUBUNIT   -0.2149
     20 C20          -1.223100   -2.035000    1.549000 C.ar     1 SUBUNIT    0.0322
     21 C21          -1.665900   -0.793100    1.063900 C.ar     1 SUBUNIT    0.0027
     22 C22          -3.034400   -0.460300    1.132300 C.ar     1 SUBUNIT    0.0103
     23 C23          -3.934200   -1.398900    1.690000 C.ar     1 SUBUNIT    0.0008
     24 C24          -3.483200   -2.645900    2.168900 C.ar     1 SUBUNIT    0.0017
     25 C25          -2.113300   -2.977100    2.102300 C.ar     1 SUBUNIT    0.0211
     26 H26           0.814925   -2.894628    1.644022 H        1 SUBUNIT    0.2014
     27 H27           3.348063   -2.090090    0.835017 H        1 SUBUNIT    0.1566
     28 O58           1.788213    3.771816   -1.563938 O.2      1 SUBUNIT    0.0000
@<TRIPOS>BOND
     1    1    2 1
     2    2    3 1
     3    2    6 1
     4    3    4 1
     5    3    7 2
     6    4    5 ar
     7    4    8 ar
     8    5    6 1
     9    5   11 ar
    10    8    9 ar
    11    9   10 ar
    12    9   19 1
    13   10   11 ar
    14   10   14 1
    15   12   13 ar
    16   12   15 ar
    17   13   14 1
    18   13   18 ar
    19   14   27 1
    20   15   16 ar
    21   16   17 ar
    22   17   18 ar
    23   19   20 1
    24   19   26 1
    25   20   21 ar
    26   20   25 ar
    27   21   22 ar
    28   22   23 ar
    29   23   24 ar
    30   24   25 ar
    31    6   28 2
@<SCITEGIC>ATOM_PROPERTY
Formal Charge
SciTegic.value.StringValue
1 0
2 0
3 0
4 0
5 0
6 0
7 0
8 0
9 0
10 0
11 0
12 0
13 0
14 0
15 0
16 0
17 0
18 0
19 0
20 0
21 0
22 0
23 0
24 0
25 0
26 0
27 0
28 0

@<SCITEGIC>ATOM_PROPERTY
pdb_tempFactor
SciTegic.value.DoubleValue
1 0.00
2 0.00
3 0.00
4 0.00
5 0.00
6 0.00
7 0.00
8 0.00
9 0.00
10 0.00
11 0.00
12 0.00
13 0.00
14 0.00
15 0.00
16 0.00
17 0.00
18 0.00
19 0.00
20 0.00
21 0.00
22 0.00
23 0.00
24 0.00
25 0.00
26 0.00
27 0.00
28 0.00

@<SCITEGIC>ATOM_PROPERTY
pdb_occupancy
SciTegic.value.DoubleValue
1 1.00
2 1.00
3 1.00
4 1.00
5 1.00
6 1.00
7 1.00
8 1.00
9 1.00
10 1.00
11 1.00
12 1.00
13 1.00
14 1.00
15 1.00
16 1.00
17 1.00
18 1.00
19 1.00
20 1.00
21 1.00
22 1.00
23 1.00
24 1.00
25 1.00
26 1.00
27 1.00
28 1.00

