peptide
  copyright 2023 drugdesign.org                             0

123127  0  0  0  0  0  0  0  0999 V2000
  -19.0820   -2.3950    0.0290 N   0  0
  -18.1280   -1.3380    0.3920 C   0  0
  -17.3150   -0.9580   -0.8630 C   0  0
  -17.3990   -1.6590   -1.8860 O   0  0
  -17.1950   -1.8510    1.5120 C   0  0
  -16.0410   -0.8760    1.7730 C   0  0
  -16.3440    0.3320    1.9440 O   0  0
  -14.8660   -1.2740    1.5780 O   0  0
  -19.3760   -2.1450   -0.9130 H   0  0
  -18.5080   -3.2230   -0.0790 H   0  0
  -16.5570    0.1400   -0.8050 N   0  0
  -15.4570    0.3220   -1.7320 C   0  0
  -14.3830    1.2510   -1.1100 C   0  0
  -13.9080    2.1940   -1.7630 O   0  0
  -16.0200    0.8870   -3.0580 C   0  0
  -15.1610    0.5240   -4.2850 C   0  0
  -14.1240    1.5850   -4.6780 C   0  0
  -12.8780    0.9440   -5.1500 N   0  0
  -11.8400    0.6590   -4.3370 C   0  0
  -11.8020    1.1550   -3.0940 N   0  0
  -10.8380   -0.1230   -4.7730 N   0  0
  -16.5060    0.6150    0.1060 H   0  0
  -12.8870    0.6310   -6.1180 H   0  0
  -12.5510    1.7730   -2.7660 H   0  0
  -11.2160    0.7780   -2.3430 H   0  0
  -10.0640   -0.3470   -4.1540 H   0  0
  -10.8550   -0.5290   -5.7050 H   0  0
  -13.9290    0.9510    0.1180 N   0  0
  -12.8980    1.7170    0.8250 C   0  0
  -11.5650    1.6140    0.0510 C   0  0
  -11.2240    0.5930   -0.5710 O   0  0
  -12.7400    1.1760    2.2800 C   0  0
  -11.4490    1.6390    2.9850 C   0  0
  -13.9200    1.6490    3.1430 C   0  0
  -14.3450    0.1620    0.6290 H   0  0
  -10.7940    2.7060    0.0500 N   0  0
   -9.4090    2.6850   -0.3840 C   0  0
   -8.5710    3.3270    0.7290 C   0  0
   -9.0250    4.2670    1.3930 O   0  0
   -9.2640    3.4820   -1.6960 C   0  0
   -7.8230    3.7130   -2.1250 C   0  0
   -7.2530    5.0040   -2.0310 C   0  0
   -7.0230    2.6440   -2.5910 C   0  0
   -5.9040    5.2220   -2.3880 C   0  0
   -5.6720    2.8620   -2.9470 C   0  0
   -5.1000    4.1510   -2.8460 C   0  0
   -3.7860    4.3650   -3.1800 O   0  0
  -11.0770    3.5140    0.6030 H   0  0
   -3.3220    3.5650   -3.4610 H   0  0
   -7.3450    2.8340    0.9160 N   0  0
   -6.3450    3.5110    1.7320 C   0  0
   -5.1230    3.6550    0.8100 C   0  0
   -4.7720    2.6870    0.1150 O   0  0
   -6.0280    2.6510    2.9810 C   0  0
   -7.3020    2.4320    3.8270 C   0  0
   -4.9340    3.3280    3.8310 C   0  0
   -7.1480    1.3930    4.9520 C   0  0
   -6.9980    2.0810    0.3270 H   0  0
   -4.5170    4.8510    0.7400 N   0  0
   -3.2590    5.0430    0.0210 C   0  0
   -2.1450    4.2750    0.7530 C   0  0
   -2.1690    4.1400    1.9840 O   0  0
   -3.0260    6.5590    0.0660 C   0  0
   -3.7310    7.0330    1.3420 C   0  0
   -4.8660    6.0250    1.5430 C   0  0
   -1.1640    3.7720   -0.0030 N   0  0
   -0.0120    3.0980    0.5750 C   0  0
    1.2530    3.6900   -0.0570 C   0  0
    1.2220    4.1600   -1.2020 O   0  0
   -0.1100    1.5920    0.2700 C   0  0
    1.0810    0.7720    0.7400 C   0  0
    1.2950    0.5360    2.1200 C   0  0
    2.0000    0.2480   -0.2010 C   0  0
    2.4130   -0.2130    2.5550 C   0  0
    3.1170   -0.5020    0.2270 C   0  0
    3.3250   -0.7320    1.6080 C   0  0
   -1.1210    3.9750   -0.9990 H   0  0
    2.3630    3.6570    0.6860 N   0  0
    3.6790    4.0000    0.1740 C   0  0
    4.6300    2.8960    0.6490 C   0  0
    4.4760    2.3840    1.7650 O   0  0
    4.1010    5.3630    0.7530 C   0  0
    5.5340    5.7370    0.4390 C   0  0
    6.5950    5.3730    1.2750 N   0  0
    6.0950    6.4310   -0.6130 C   0  0
    7.7410    5.8340    0.7270 C   0  0
    7.4730    6.4840   -0.4120 N   0  0
    2.3480    3.2090    1.6000 H   0  0
    6.5280    4.8510    2.1440 H   0  0
    5.6130    2.5370   -0.1810 N   0  0
    6.6730    1.6240    0.2080 C   0  0
    7.9820    2.2040   -0.3410 C   0  0
    7.9690    2.9060   -1.3590 O   0  0
    6.3900    0.2370   -0.3990 C   0  0
    7.4170   -0.8390   -0.0040 C   0  0
    7.4170   -1.0790    1.5160 C   0  0
    7.0960   -2.1440   -0.7460 C   0  0
    5.7580    3.0340   -1.0590 H   0  0
    9.1020    1.9420    0.3380 N   0  0
   10.4090    2.3980   -0.1050 C   0  0
   11.4260    1.3210    0.2970 C   0  0
   11.1610    0.5240    1.2050 O   0  0
   10.7240    3.7410    0.5840 C   0  0
   12.0560    4.3750    0.1500 C   0  0
   12.0420    4.7340   -1.3460 C   0  0
   12.3220    5.6300    0.9940 C   0  0
    9.0950    1.3140    1.1390 H   0  0
   16.7690    1.0120    0.1300 H   0  0
   17.2480   -5.5420    0.6980 H   0  0
   12.7134    1.9255   -1.1325 H   0  0
   15.9470    0.5620    0.3550 O   0  0
   17.3670   -5.0360   -0.1170 O   0  0
   16.4220   -4.0610   -0.3110 C   0  0
   15.3870   -3.8600    0.6340 C   0  0
   16.4660   -3.2410   -1.4630 C   0  0
   14.4160   -2.8540    0.4340 C   0  0
   15.4950   -2.2350   -1.6650 C   0  0
   14.4640   -2.0330   -0.7180 C   0  0
   13.4260   -0.9440   -0.9320 C   0  0
   15.1180    1.8580   -1.2690 O   0  0
   14.9670    1.0070   -0.4270 C   0  0
   13.6330    0.3250   -0.0820 C   0  0
   12.5750    1.2770   -0.3840 N   0  0
  1  2  1  0  0  0
  2  3  1  0  0  0
  3  4  2  0  0  0
  2  5  1  0  0  0
  5  6  1  0  0  0
  6  7  1  0  0  0
  6  8  1  0  0  0
  9  1  1  0  0  0
 10  1  1  0  0  0
 11 12  1  0  0  0
 12 13  1  0  0  0
 13 14  2  0  0  0
 12 15  1  0  0  0
 15 16  1  0  0  0
 16 17  1  0  0  0
 17 18  1  0  0  0
 18 19  1  0  0  0
 19 20  1  0  0  0
 19 21  1  0  0  0
 22 11  1  0  0  0
 23 18  1  0  0  0
 24 20  1  0  0  0
 25 20  1  0  0  0
 26 21  1  0  0  0
 27 21  1  0  0  0
 28 29  1  0  0  0
 29 30  1  0  0  0
 30 31  2  0  0  0
 29 32  1  0  0  0
 32 33  1  0  0  0
 32 34  1  0  0  0
 35 28  1  0  0  0
 36 37  1  0  0  0
 37 38  1  0  0  0
 38 39  2  0  0  0
 37 40  1  0  0  0
 40 41  1  0  0  0
 41 42  1  0  0  0
 41 43  1  0  0  0
 42 44  1  0  0  0
 43 45  1  0  0  0
 44 46  1  0  0  0
 45 46  1  0  0  0
 46 47  1  0  0  0
 48 36  1  0  0  0
 49 47  1  0  0  0
 50 51  1  0  0  0
 51 52  1  0  0  0
 52 53  2  0  0  0
 51 54  1  0  0  0
 54 55  1  0  0  0
 54 56  1  0  0  0
 55 57  1  0  0  0
 58 50  1  0  0  0
 59 60  1  0  0  0
 60 61  1  0  0  0
 61 62  2  0  0  0
 60 63  1  0  0  0
 63 64  1  0  0  0
 64 65  1  0  0  0
 65 59  1  0  0  0
 66 67  1  0  0  0
 67 68  1  0  0  0
 68 69  2  0  0  0
 67 70  1  0  0  0
 70 71  1  0  0  0
 71 72  1  0  0  0
 71 73  1  0  0  0
 72 74  1  0  0  0
 73 75  1  0  0  0
 74 76  1  0  0  0
 75 76  1  0  0  0
 77 66  1  0  0  0
 78 79  1  0  0  0
 79 80  1  0  0  0
 80 81  2  0  0  0
 79 82  1  0  0  0
 82 83  1  0  0  0
 83 84  1  0  0  0
 83 85  1  0  0  0
 84 86  1  0  0  0
 85 87  1  0  0  0
 86 87  1  0  0  0
 88 78  1  0  0  0
 89 84  1  0  0  0
 90 91  1  0  0  0
 91 92  1  0  0  0
 92 93  2  0  0  0
 91 94  1  0  0  0
 94 95  1  0  0  0
 95 96  1  0  0  0
 95 97  1  0  0  0
 98 90  1  0  0  0
 99100  1  0  0  0
100101  1  0  0  0
101102  2  0  0  0
100103  1  0  0  0
103104  1  0  0  0
104105  1  0  0  0
104106  1  0  0  0
107 99  1  0  0  0
  3 11  1  0  0  0
 13 28  1  0  0  0
 30 36  1  0  0  0
 38 50  1  0  0  0
 52 59  1  0  0  0
 61 66  1  0  0  0
 68 78  1  0  0  0
 80 90  1  0  0  0
 92 99  1  0  0  0
111108  1  0  0  0
112109  1  0  0  0
113112  1  0  0  0
114113  1  0  0  0
115113  1  0  0  0
116114  1  0  0  0
117115  1  0  0  0
118116  1  0  0  0
118117  1  0  0  0
119118  1  0  0  0
121111  1  0  0  0
121120  1  0  0  0
122119  1  0  0  0
122121  1  0  0  0
123110  1  0  0  0
123122  1  0  0  0
101123  1  0  0  0
M  END
$$$$
design
  copyright 2023 drugdesign.org                             0

 52 55  0  0  0  0  0  0  0  0999 V2000
    6.7647   -2.0320   -0.9515 C   0  0
    6.8990   -3.3963   -0.2407 C   0  0
    6.3686   -3.3478    1.2079 C   0  0
    6.9675   -2.1809    2.0235 C   0  0
    6.8323   -0.8340    1.2832 C   0  0
    7.4072   -0.8744   -0.1535 C   0  0
   -2.9160    6.5650    1.5120 C   0  0
   -3.3100    5.1820    1.2450 N   0  0
   -4.7480    4.9160    1.1920 C   0  0
   -5.4570    5.4900    2.4430 C   0  0
   -5.1240    6.9320    2.6170 N   0  0
   -3.6530    7.1160    2.7580 C   0  0
   -5.7580    7.3910    3.8740 C   0  0
   -2.3090    3.9850    1.6950 S   0  0
   -2.9780    2.7290    1.3790 O   0  0
   -1.9630    4.2430    3.0880 O   0  0
    0.2960    3.1530    0.9100 C   0  0  2  0  0  0
    1.5280    3.5490    0.0950 C   0  0
    1.4320    3.8460   -1.1020 O   0  0
   -0.1770    1.7430    0.5160 C   0  0
    0.8180    0.6340    0.8040 C   0  0
    1.0340    0.1930    2.1320 C   0  0
    1.5360    0.0240   -0.2540 C   0  0
    1.9510   -0.8480    2.4020 C   0  0
    2.4540   -1.0170    0.0100 C   0  0
    2.6600   -1.4550    1.3390 C   0  0
   -0.8250    4.1730    0.6620 C   0  0
    2.7020    3.5740    0.7370 N   0  0
    3.9400    3.8840    0.0370 C   0  0  2  0  0  0
    5.0410    2.9590    0.5650 C   0  0
    5.1120    2.6850    1.7720 O   0  0
    4.3100    5.3540    0.2960 C   0  0
    5.6070    5.7610   -0.3850 C   0  0
    6.6060    6.5030    0.2550 C   0  0
    5.9270    5.4150   -1.7310 N   0  0
    7.9390    6.7770   -0.8000 S   0  0
    7.0890    5.8890   -2.0290 C   0  0
    2.7292    3.3758    1.7168 H   0  0
    5.9210    2.4870   -0.3250 N   0  0
    7.0430    1.6540    0.0850 C   0  0  2  0  0  0
    8.3210    2.5110    0.1070 C   0  0  1  0  0  0
    8.4670    3.1510   -1.1730 O   0  0
    7.1670    0.4630   -0.8810 C   0  0
    5.8060    2.7110   -1.2928 H   0  0
    9.2970    3.6440   -1.1720 H   0  0
    9.5980    4.3330    1.3620 C   0  0
   10.8440    3.4430    1.5520 C   0  0
    7.8700    2.9900    2.4620 O   0  0
    8.2490    3.5940    1.2150 C   0  0  2  0  0  0
    6.9150    2.8040    2.4330 H   0  0
   10.8630    2.8060    2.9530 C   0  0
   12.1110    4.2860    1.3640 C   0  0
  1  6  1  0  0  0
  1  2  1  0  0  0
  2  3  1  0  0  0
  3  4  1  0  0  0
  4  5  1  0  0  0
  5  6  1  0  0  0
  7  8  1  0  0  0
  7 12  1  0  0  0
  8  9  1  0  0  0
  9 10  1  0  0  0
 10 11  1  0  0  0
 11 12  1  0  0  0
 11 13  1  0  0  0
 14 15  2  0  0  0
 14 16  2  0  0  0
 17 18  1  0  0  0
 17 27  1  0  0  0
 17 20  1  0  0  0
 18 19  2  0  0  0
 20 21  1  0  0  0
 21 23  1  0  0  0
 21 22  1  0  0  0
 22 24  1  0  0  0
 23 25  1  0  0  0
 24 26  1  0  0  0
 25 26  1  0  0  0
 28 29  1  0  0  0
 28 38  1  0  0  0
 29 30  1  0  0  0
 29 32  1  0  0  0
 30 31  2  0  0  0
 32 33  1  0  0  0
 33 35  1  0  0  0
 33 34  2  0  0  0
 34 36  1  0  0  0
 35 37  2  0  0  0
 36 37  1  0  0  0
 39 44  1  0  0  0
 39 40  1  0  0  0
 40 41  1  0  0  0
 40 43  1  0  0  0
 41 42  1  0  0  0
 42 45  1  0  0  0
 46 49  1  0  0  0
 46 47  1  0  0  0
 47 51  1  0  0  0
 48 50  1  0  0  0
 48 49  1  0  0  0
  8 14  1  0  0  0
 27 14  1  0  0  0
 18 28  1  0  0  0
 39 30  1  0  0  0
 43  6  1  0  0  0
 41 49  1  0  0  0
 47 52  1  0  0  0
M  END
$$$$