SP
  DSViewer          3D                             0

139141  0  0  0  0  0  0  0  0999 V2000
   -0.2590   -5.4067    2.7954 C   0  0
   -0.9867   -5.5797    3.7829 O   0  0
    0.2365   -5.9532    0.8878 H   0  0
   -0.3898   -6.1272    1.6735 N   0  0
   -1.3972   -7.1724    1.4613 C   0  0  2  0  0  0
   -0.8989   -7.9958    0.2604 C   0  0
   -0.3023   -7.3952   -0.6470 O   0  0
   -2.7594   -6.4834    1.1648 C   0  0
   -3.9410   -7.4666    1.0154 C   0  0
   -5.2353   -6.7097    0.6388 C   0  0
   -6.3968   -7.7114    0.4642 C   0  0
   -7.6096   -7.0072   -0.0236 N   0  0
   -1.7537  -10.1892    1.1977 C   0  0
   -1.1062   -9.3331    0.1997 N   0  0
   -0.6731  -10.1346   -0.9466 C   0  0  2  0  0  0
   -1.1921   -9.5476   -2.2767 C   0  0
   -0.4210   -9.4048   -3.2363 O   0  0
   -1.1763  -11.5731   -0.6785 C   0  0
   -2.2510  -11.4109    0.4133 C   0  0
   -3.0690   -9.3139   -1.5128 H   0  0
   -2.4808   -9.1536   -2.3251 N   0  0
   -3.0820   -8.4848   -3.4887 C   0  0  2  0  0  0
   -2.2485   -7.2589   -3.9432 C   0  0
   -2.1282   -6.9870   -5.1416 O   0  0
   -4.5353   -8.0771   -3.1417 C   0  0
   -5.3073   -7.5489   -4.3751 C   0  0
   -6.7635   -7.1712   -4.0434 C   0  0
   -7.1608   -7.1186   -2.8772 O   0  0
   -7.5794   -6.8987   -5.0699 N   0  0
   -8.5451   -6.6466   -4.8708 H   0  0
   -7.2380   -6.9398   -6.0235 H   0  0
   -1.6868   -6.8748   -2.0270 H   0  0
   -1.6720   -6.5223   -2.9827 N   0  0
   -0.9098   -5.2898   -3.2248 C   0  0  2  0  0  0
    0.5300   -5.5983   -3.7033 C   0  0
    1.2528   -4.6722   -4.0984 O   0  0
   -0.9128   -4.4855   -1.9108 C   0  0
   -0.4768   -3.0065   -2.0250 C   0  0
   -0.3740   -2.4013   -0.6238 C   0  0
    0.7048   -1.9796   -0.1930 O   0  0
   -1.4860   -2.4081    0.1234 N   0  0
   -1.4090   -2.1298    1.1022 H   0  0
   -2.3639   -2.7617   -0.2418 H   0  0
    0.3072   -7.6004   -3.3363 H   0  0
    0.9625   -6.8766   -3.6444 N   0  0
    2.3226   -7.2994   -4.0086 C   0  0  2  0  0  0
    2.2512   -8.4223   -5.0505 C   0  0
    2.4746   -8.1820   -6.2413 O   0  0
    3.0884   -7.7213   -2.7331 C   0  0
    4.5007   -8.2815   -2.9959 C   0  0
    5.5269   -7.4179   -3.4634 C   0  0
    7.0984   -9.3048   -3.5202 C   0  0
    6.0763  -10.1690   -3.0496 C   0  0
    4.7793   -9.6586   -2.7859 C   0  0
    6.8236   -7.9293   -3.7264 C   0  0
    1.5003   -9.7151   -3.6795 H   0  0
    1.8831   -9.6435   -4.6190 N   0  0
    1.7110  -10.7884   -5.5102 C   0  0  2  0  0  0
    0.6725  -10.4389   -6.5935 C   0  0
    0.8712  -10.7259   -7.7753 O   0  0
    1.2755  -12.0263   -4.6881 C   0  0
    1.0865  -13.3017   -5.5195 C   0  0
    2.2117  -14.0968   -5.8586 C   0  0
    0.7447  -15.6534   -7.0515 C   0  0
   -0.3795  -14.8557   -6.7220 C   0  0
   -0.2096  -13.6808   -5.9576 C   0  0
    2.0404  -15.2724   -6.6214 C   0  0
   -0.5202   -9.5478   -5.1982 H   0  0
   -0.4314   -9.7847   -6.1858 N   0  0
   -1.4904   -9.3765   -7.1160 C   0  0
   -1.1562   -8.0929   -7.9110 C   0  0
   -2.0002   -7.6378   -8.7001 O   0  0
    0.7551   -7.9262   -7.1431 H   0  0
    0.0448   -7.4949   -7.7412 N   0  0
    0.3924   -6.2215   -8.3947 C   0  0  2  0  0  0
    0.7994   -6.4646   -9.8589 C   0  0
    1.9495   -6.2162  -10.2609 O   0  0
    1.5009   -5.5100   -7.5837 C   0  0
    1.7152   -4.0194   -7.9644 C   0  0
    0.5203   -3.1327   -7.5418 C   0  0
    2.9952   -3.5088   -7.2677 C   0  0
   -1.0745   -7.1320  -10.2625 H   0  0
   -0.1568   -6.9378  -10.6751 N   0  0
   -7.5868   -6.0345    0.2660 H   0  0
   -7.6165   -7.0425   -1.0449 H   0  0
   -1.4796   -7.8178    2.3642 H   0  0
   -2.9882   -5.7852    2.0009 H   0  0
   -2.6617   -5.9068    0.2178 H   0  0
   -3.7037   -8.2054    0.2175 H   0  0
   -4.0968   -8.0008    1.9794 H   0  0
   -5.4890   -5.9868    1.4462 H   0  0
   -5.0767   -6.1581   -0.3149 H   0  0
   -6.1027   -8.4919   -0.2726 H   0  0
   -6.6189   -8.1922    1.4432 H   0  0
   -1.0251  -10.4972    1.9807 H   0  0
   -2.6067   -9.6573    1.6753 H   0  0
    0.4395  -10.1460   -0.9727 H   0  0
   -0.3450  -12.2199   -0.3191 H   0  0
   -1.6160  -12.0143   -1.6008 H   0  0
   -3.2523  -11.2207   -0.0340 H   0  0
   -2.3018  -12.3126    1.0638 H   0  0
   -3.1163   -9.2132   -4.3294 H   0  0
   -5.0701   -8.9658   -2.7380 H   0  0
   -4.5082   -7.2785   -2.3670 H   0  0
   -4.7842   -6.6467   -4.7644 H   0  0
   -5.3130   -8.3395   -5.1584 H   0  0
   -1.4289   -4.6957   -4.0098 H   0  0
   -1.9470   -4.5059   -1.5001 H   0  0
   -0.2224   -4.9912   -1.1992 H   0  0
    0.5137   -2.9481   -2.5293 H   0  0
   -1.2286   -2.4417   -2.6204 H   0  0
    2.8500   -6.4313   -4.4637 H   0  0
    3.1841   -6.8304   -2.0730 H   0  0
    2.4938   -8.5050   -2.2125 H   0  0
    5.3348   -6.4471   -3.6073 H   0  0
    8.0122   -9.6657   -3.7064 H   0  0
    6.2704  -11.1391   -2.9037 H   0  0
    4.0607  -10.2685   -2.4518 H   0  0
    7.5439   -7.3196   -4.0573 H   0  0
    2.6840  -11.0091   -6.0035 H   0  0
    1.9751  -12.2045   -3.9961 H   0  0
    3.1256  -13.8246   -5.5574 H   0  0
    0.6233  -16.4877   -7.5893 H   0  0
   -1.2920  -15.1246   -7.0305 H   0  0
   -1.0015  -13.1163   -5.7249 H   0  0
    2.8322  -15.8355   -6.8580 H   0  0
   -1.6616  -10.2044   -7.8399 H   0  0
   -2.4213   -9.1970   -6.5328 H   0  0
   -0.5113   -5.5720   -8.3898 H   0  0
    1.2301   -5.5591   -6.5053 H   0  0
    2.4579   -6.0535   -7.7497 H   0  0
    1.8492   -3.9437   -9.0668 H   0  0
    0.7104   -2.0748   -7.8306 H   0  0
   -0.4050   -3.4936   -8.0440 H   0  0
    0.3828   -3.1970   -6.4391 H   0  0
    3.1692   -2.4404   -7.5266 H   0  0
    2.8822   -3.6094   -6.1650 H   0  0
    3.8660   -4.1173   -7.5997 H   0  0
    0.4078  -11.8142   -4.2386 H   0  0
  1  2  2  0  0  0
  1  4  1  0  0  0
  3  4  1  0  0  0
  4  5  1  0  0  0
  5  6  1  0  0  0
  5  8  1  0  0  0
  5 86  1  0  0  0
  6  7  2  0  0  0
  6 14  1  0  0  0
  8  9  1  0  0  0
  8 87  1  0  0  0
  8 88  1  0  0  0
  9 10  1  0  0  0
  9 89  1  0  0  0
  9 90  1  0  0  0
 10 11  1  0  0  0
 10 91  1  0  0  0
 10 92  1  0  0  0
 11 12  1  0  0  0
 11 93  1  0  0  0
 11 94  1  0  0  0
 12 84  1  0  0  0
 12 85  1  0  0  0
 13 14  1  0  0  0
 13 19  1  0  0  0
 13 95  1  0  0  0
 13 96  1  0  0  0
 14 15  1  0  0  0
 15 16  1  0  0  0
 15 18  1  0  0  0
 15 97  1  0  0  0
 16 17  2  0  0  0
 16 21  1  0  0  0
 18 19  1  0  0  0
 18 98  1  0  0  0
 18 99  1  0  0  0
 19100  1  0  0  0
 19101  1  0  0  0
 20 21  1  0  0  0
 21 22  1  0  0  0
 22 23  1  0  0  0
 22 25  1  0  0  0
 22102  1  0  0  0
 23 24  2  0  0  0
 23 33  1  0  0  0
 25 26  1  0  0  0
 25103  1  0  0  0
 25104  1  0  0  0
 26 27  1  0  0  0
 26105  1  0  0  0
 26106  1  0  0  0
 27 28  2  0  0  0
 27 29  1  0  0  0
 29 30  1  0  0  0
 29 31  1  0  0  0
 32 33  1  0  0  0
 33 34  1  0  0  0
 34 35  1  0  0  0
 34 37  1  0  0  0
 34107  1  0  0  0
 35 36  2  0  0  0
 35 45  1  0  0  0
 37 38  1  0  0  0
 37108  1  0  0  0
 37109  1  0  0  0
 38 39  1  0  0  0
 38110  1  0  0  0
 38111  1  0  0  0
 39 40  2  0  0  0
 39 41  1  0  0  0
 41 42  1  0  0  0
 41 43  1  0  0  0
 44 45  1  0  0  0
 45 46  1  0  0  0
 46 47  1  0  0  0
 46 49  1  0  0  0
 46112  1  0  0  0
 47 48  2  0  0  0
 47 57  1  0  0  0
 49 50  1  0  0  0
 49113  1  0  0  0
 49114  1  0  0  0
 50 51  4  0  0  0
 50 54  4  0  0  0
 51 55  4  0  0  0
 51115  1  0  0  0
 52 55  4  0  0  0
 52 53  4  0  0  0
 52116  1  0  0  0
 53 54  4  0  0  0
 53117  1  0  0  0
 54118  1  0  0  0
 55119  1  0  0  0
 56 57  1  0  0  0
 57 58  1  0  0  0
 58 59  1  0  0  0
 58 61  1  0  0  0
 58120  1  0  0  0
 59 60  2  0  0  0
 59 69  1  0  0  0
 61 62  1  0  0  0
 61121  1  0  0  0
 62 63  4  0  0  0
 62 66  4  0  0  0
 63 67  4  0  0  0
 63122  1  0  0  0
 64 67  4  0  0  0
 64 65  4  0  0  0
 64123  1  0  0  0
 65 66  4  0  0  0
 65124  1  0  0  0
 66125  1  0  0  0
 67126  1  0  0  0
 68 69  1  0  0  0
 69 70  1  0  0  0
 70 71  1  0  0  0
 70127  1  0  0  0
 70128  1  0  0  0
 71 72  2  0  0  0
 71 74  1  0  0  0
 73 74  1  0  0  0
 74 75  1  0  0  0
 75 76  1  0  0  0
 75 78  1  0  0  0
 75129  1  0  0  0
 76 77  2  0  0  0
 76 83  1  0  0  0
 78 79  1  0  0  0
 78130  1  0  0  0
 78131  1  0  0  0
 79 80  1  0  0  0
 79 81  1  0  0  0
 79132  1  0  0  0
 80133  1  0  0  0
 80134  1  0  0  0
 80135  1  0  0  0
 81136  1  0  0  0
 81137  1  0  0  0
 81138  1  0  0  0
 82 83  1  0  0  0
 61139  1  0  0  0
M  END
$$$$
cGP
  DSViewer          3D                             0

 66 69  0  0  0  0  0  0  0  0999 V2000
   -1.9976   10.3858    4.0622 O   0  0
   -1.4777    9.3437    4.4699 C   0  0
   -2.3585    8.3291    5.1423 C   0  0
   -3.1102    8.6678    6.2833 C   0  0
   -3.9271    7.6991    6.8968 C   0  0
   -4.0105    6.3938    6.3780 C   0  0
   -3.2677    6.0559    5.2341 C   0  0
   -2.4453    7.0199    4.6198 C   0  0
   -4.7393    8.0672    8.1444 C   0  0
   -3.3508    4.6373    4.6527 C   0  0
   -0.1431    9.1037    4.3079 N   0  0
    0.4012    7.7346    4.4363 C   0  0
    1.5278    7.4029    3.4324 C   0  0
    2.6405    8.4780    3.4388 C   0  0  2  0  0  0
    1.9258    9.7942    3.0218 C   0  0
    0.7895   10.2191    3.9898 C   0  0  2  0  0  0
    3.7206    8.0910    2.4911 N   0  0
    5.0918    8.2831    3.0441 C   0  0
    6.0749    8.8499    1.9935 C   0  0
    6.6124    7.8168    1.0411 C   0  0
    6.0083    6.5444    0.9871 C   0  0
    6.4998    5.5684    0.1062 C   0  0
    7.5953    5.8623   -0.7229 C   0  0
    8.1983    7.1331   -0.6731 C   0  0
    7.7074    8.1098    0.2076 C   0  0
    3.6187    7.1658    2.2650 H   0  0
    1.3753   10.8947    5.2664 C   0  0
    2.3599   12.0471    4.9979 C   0  0
    1.8735   13.3339    4.6938 C   0  0
    2.7717   14.3873    4.4526 C   0  0
    4.1581   14.1574    4.5167 C   0  0
    4.6465   12.8744    4.8235 C   0  0
    3.7490   11.8208    5.0650 C   0  0
   -3.0641    9.5941    6.6571 H   0  0
   -4.5937    5.7121    6.8198 H   0  0
   -1.9179    6.7752    3.8061 H   0  0
   -5.3245    7.1864    8.4912 H   0  0
   -4.0484    8.3951    8.9531 H   0  0
   -5.4345    8.9018    7.9013 H   0  0
   -2.6993    4.5554    3.7541 H   0  0
   -3.0187    3.9023    5.4197 H   0  0
   -4.4037    4.4141    4.3689 H   0  0
    0.8053    7.6147    5.4665 H   0  0
   -0.4306    7.0121    4.2790 H   0  0
    1.9745    6.4203    3.7040 H   0  0
    1.0923    7.3411    2.4099 H   0  0
    3.0581    8.5835    4.4651 H   0  0
    2.6823   10.6098    2.9875 H   0  0
    1.4895    9.6518    2.0078 H   0  0
    0.1922   10.9957    3.4617 H   0  0
    5.0364    8.9909    3.9012 H   0  0
    5.4753    7.3007    3.4000 H   0  0
    5.5982    9.5501    1.4620 H   0  0
    6.8463    9.2646    2.4760 H   0  0
    5.2283    6.3367    1.5774 H   0  0
    6.0712    4.6657    0.0688 H   0  0
    7.9473    5.1672   -1.3498 H   0  0
    8.9769    7.3404   -1.2654 H   0  0
    8.1356    9.0128    0.2426 H   0  0
    0.5274   11.2966    5.8648 H   0  0
    1.9078   10.1155    5.8564 H   0  0
    0.8880   13.4978    4.6497 H   0  0
    2.4256   15.2999    4.2354 H   0  0
    4.7972   14.9070    4.3439 H   0  0
    5.6322   12.7123    4.8697 H   0  0
    4.0964   10.9092    5.2848 H   0  0
  1  2  2  0  0  0
  2  3  1  0  0  0
  2 11  1  0  0  0
  3  4  4  0  0  0
  3  8  4  0  0  0
  4  5  4  0  0  0
  4 34  1  0  0  0
  5  6  4  0  0  0
  5  9  1  0  0  0
  6  7  4  0  0  0
  6 35  1  0  0  0
  7  8  4  0  0  0
  7 10  1  0  0  0
  8 36  1  0  0  0
  9 37  1  0  0  0
  9 38  1  0  0  0
  9 39  1  0  0  0
 10 40  1  0  0  0
 10 41  1  0  0  0
 10 42  1  0  0  0
 11 12  1  0  0  0
 11 16  1  0  0  0
 12 13  1  0  0  0
 12 43  1  0  0  0
 12 44  1  0  0  0
 13 14  1  0  0  0
 13 45  1  0  0  0
 13 46  1  0  0  0
 14 15  1  0  0  0
 14 17  1  0  0  0
 14 47  1  0  0  0
 15 16  1  0  0  0
 15 48  1  0  0  0
 15 49  1  0  0  0
 16 27  1  0  0  0
 16 50  1  0  0  0
 17 18  1  0  0  0
 17 26  1  0  0  0
 18 19  1  0  0  0
 18 51  1  0  0  0
 18 52  1  0  0  0
 19 20  1  0  0  0
 19 53  1  0  0  0
 19 54  1  0  0  0
 20 21  4  0  0  0
 20 25  4  0  0  0
 21 22  4  0  0  0
 21 55  1  0  0  0
 22 23  4  0  0  0
 22 56  1  0  0  0
 23 24  4  0  0  0
 23 57  1  0  0  0
 24 25  4  0  0  0
 24 58  1  0  0  0
 25 59  1  0  0  0
 27 28  1  0  0  0
 27 60  1  0  0  0
 27 61  1  0  0  0
 28 29  4  0  0  0
 28 33  4  0  0  0
 29 30  4  0  0  0
 29 62  1  0  0  0
 30 31  4  0  0  0
 30 63  1  0  0  0
 31 32  4  0  0  0
 31 64  1  0  0  0
 32 33  4  0  0  0
 32 65  1  0  0  0
 33 66  1  0  0  0
M  END
$$$$
Molecule
  DSViewer          3D                             0

  5  4  0  0  0  0  0  0  0  0999 V2000
    0.1923    0.8552    0.1911 C   0  0
    0.2020    2.3023    0.6658 C   0  0
    0.2117    3.7494    1.1404 C   0  0
   -0.5192    2.9618    1.2295 C   0  0
    0.9337    3.2278    0.6218 C   0  0
  1  2  1  0  0  0
  2  3  1  0  0  0
  3  4  1  0  0  0
  3  5  1  0  0  0
M  END
$$$$
