Molecule
  DSViewer          3D                             0

 20 19  0  0  0  0  0  0  0  0999 V2000
   -8.7930   -0.6014   -2.2695 N   0  0
   -9.2860   -1.9569   -2.5205 C   0  0
   -9.2899    0.2009   -2.6765 H   0  0
  -10.8183    1.1961   -1.6457 O   0  0
  -11.3627    2.4543   -2.0591 C   0  0  1  0  0  0
  -12.8920    2.3595   -2.0529 C   0  0
   -5.7689    0.9228   -0.5352 C   0  0
   -7.0586   -1.4073   -0.9880 O   0  0
   -7.6230   -0.4068   -1.4460 C   0  0
   -7.0629    0.8813   -1.1490 N   0  0
   -7.6621    2.0632   -1.4392 N   0  0
   -9.0486    5.0231   -0.4059 C   0  0
   -9.0520    2.1068    0.3737 O   0  0
   -8.7269    2.5981   -0.7100 C   0  0
   -9.4655    3.7964   -1.2355 C   0  0  1  0  0  0
  -10.9335    3.6043   -1.2007 N   0  0
   -7.3210    2.5830   -2.2224 H   0  0
  -11.5614    4.1729   -0.6692 H   0  0
   -9.2515    5.9872   -0.6760 H   0  0
   -5.6216    1.7122   -1.1578 H   0  0
 14 11  1  0  0  0
  9  1  1  0  0  0
 16  5  1  0  0  0
  1  2  1  0  0  0
  1  3  1  0  0  0
  5  4  1  0  0  0
  6  5  1  0  0  0
 10  7  1  0  0  0
 11 10  1  0  0  0
  9  8  2  0  0  0
  9 10  1  0  0  0
 15 12  1  0  0  0
 14 13  2  0  0  0
 15 14  1  0  0  0
 16 15  1  0  0  0
 11 17  1  0  0  0
 16 18  1  0  0  0
 12 19  1  0  0  0
  7 20  1  0  0  0
M  END
$$$$