BTERN2
  copyright 2023 drugdesign.org                             0

 18 17  0  0  0  0  0  0  0  0999 V2000
  -10.7899    3.7650   -1.1440 N   0  0
   -9.3393    3.8714   -1.3085 C   0  0  2  0  0  0
   -8.5773    2.6524   -0.7617 C   0  0
   -8.6653    2.3531    0.4287 O   0  0
   -8.8547    5.1693   -0.6361 C   0  0
  -11.2702    4.5262   -0.6848 H   0  0
   -7.8381    1.9383   -1.6151 N   0  0
   -6.8929    0.9045   -1.2154 C   0  0  2  0  0  0
   -7.6739   -0.3863   -0.9336 C   0  0
   -7.1010   -1.3998   -0.5394 O   0  0
   -6.1083    1.3706    0.0206 C   0  0
   -7.8147    2.2344   -2.5801 H   0  0
  -13.0389    2.8803   -1.5178 C   0  0
  -11.5211    2.7960   -1.6950 C   0  0  2  0  0  0
  -11.0145    1.8440   -2.2947 O   0  0
   -9.0026   -0.3446   -1.0898 N   0  0
   -9.8873   -1.4836   -0.8858 C   0  0
   -9.4305    0.5158   -1.4284 H   0  0
  1  2  1  0  0  0
  1  6  1  0  0  0
  2  3  1  0  0  0
  3  4  2  0  0  0
  2  5  1  0  0  0
  9  8  1  0  0  0
  9 10  2  0  0  0
  7  8  1  0  0  0
  8 11  1  0  0  0
 12  7  1  0  0  0
 13 14  1  0  0  0
 14 15  1  0  0  0
 16 17  1  0  0  0
 16 18  1  0  0  0
  1 14  1  0  0  0
  9 16  1  0  0  0
  3  7  1  0  0  0
M  END
$$$$
Molecule
  copyright 2023 drugdesign.org                             0

 20 19  0  0  0  0  0  0  0  0999 V2000
   -8.7930   -0.6014   -2.2695 N   0  0
   -9.2860   -1.9569   -2.5205 C   0  0
   -9.2899    0.2009   -2.6765 H   0  0
  -10.8183    1.1961   -1.6457 O   0  0
  -11.3627    2.4543   -2.0591 C   0  0  1  0  0  0
  -12.8920    2.3595   -2.0529 C   0  0
   -5.7689    0.9228   -0.5352 C   0  0
   -7.0586   -1.4073   -0.9880 O   0  0
   -7.6230   -0.4068   -1.4460 C   0  0
   -7.0629    0.8813   -1.1490 N   0  0
   -7.6621    2.0632   -1.4392 N   0  0
   -9.0486    5.0231   -0.4059 C   0  0
   -9.0520    2.1068    0.3737 O   0  0
   -8.7269    2.5981   -0.7100 C   0  0
   -9.4655    3.7964   -1.2355 C   0  0  1  0  0  0
  -10.9335    3.6043   -1.2007 N   0  0
   -7.3210    2.5830   -2.2224 H   0  0
  -11.5614    4.1729   -0.6692 H   0  0
   -9.2515    5.9872   -0.6760 H   0  0
   -5.6216    1.7122   -1.1578 H   0  0
 14 11  1  0  0  0
  9  1  1  0  0  0
 16  5  1  0  0  0
  1  2  1  0  0  0
  1  3  1  0  0  0
  5  4  1  0  0  0
  6  5  1  0  0  0
 10  7  1  0  0  0
 11 10  1  0  0  0
  9  8  2  0  0  0
  9 10  1  0  0  0
 15 12  1  0  0  0
 14 13  2  0  0  0
 15 14  1  0  0  0
 16 15  1  0  0  0
 11 17  1  0  0  0
 16 18  1  0  0  0
 12 19  1  0  0  0
  7 20  1  0  0  0
M  END
$$$$