N-methyl
  DSViewer          3D                             0

 25 24  0  0  0  0  0  0  0  0999 V2000
    6.7999    2.7422   16.2362 N   0  0
    5.6570    2.1521   15.5716 C   0  0  2  0  0  0
    5.9804    0.7000   15.3909 C   0  0
    7.1085    0.4059   14.9845 O   0  0
    5.0789   -0.3290   15.6936 N   0  0
    5.4987   -1.6804   15.4737 C   0  0  2  0  0  0
    4.4821   -2.3908   14.6349 C   0  0
    3.8944   -1.7827   13.7328 O   0  0
    6.9367    2.2662   17.1354 H   0  0
    7.6312    2.5826   15.6497 H   0  0
    4.7301    2.3317   16.1273 H   0  0
    5.5653    2.8256   14.1889 C   0  0
    3.7573   -0.0646   16.2178 C   0  0
    6.4691   -1.6732   14.9561 H   0  0
    5.6377   -2.4250   16.8138 C   0  0
    4.2788   -3.3552   14.8039 H   0  0
    4.7865    2.4506   13.6860 H   0  0
    6.4066    2.6525   13.6768 H   0  0
    5.4430    3.8113   14.3051 H   0  0
    5.9310   -3.3658   16.6441 H   0  0
    4.7558   -2.4312   17.2853 H   0  0
    6.3168   -1.9624   17.3838 H   0  0
    3.2772   -0.9294   16.3646 H   0  0
    3.2450    0.4940   15.5654 H   0  0
    3.8345    0.4249   17.0865 H   0  0
  1  2  1  0  0  0
  1  9  1  0  0  0
  1 10  1  0  0  0
  2  3  1  0  0  0
  2 11  1  0  0  0
  2 12  1  0  0  0
  3  4  2  0  0  0
  3  5  1  0  0  0
  5  6  1  0  0  0
  5 13  1  0  0  0
  6  7  1  0  0  0
  6 14  1  0  0  0
  6 15  1  0  0  0
  7  8  2  0  0  0
  7 16  1  0  0  0
 12 17  1  0  0  0
 12 18  1  0  0  0
 12 19  1  0  0  0
 15 20  1  0  0  0
 15 21  1  0  0  0
 15 22  1  0  0  0
 13 23  1  0  0  0
 13 24  1  0  0  0
 13 25  1  0  0  0
M  END
$$$$