thioester
  DSViewer          3D                             0

 21 20  0  0  0  0  0  0  0  0999 V2000
    6.9110    2.9588   16.3392 N   0  0
    5.7812    2.3251   15.6862 C   0  0  2  0  0  0
    6.0756    0.8887   15.5691 C   0  0
    7.2229    0.4939   15.8012 O   0  0
    4.8145   -0.2382   15.1066 S   0  0
    5.4780   -1.9098   15.1580 C   0  0  2  0  0  0
    4.4189   -2.8627   14.7242 C   0  0
    3.3318   -2.4226   14.3330 O   0  0
    7.0483    2.5109   17.2545 H   0  0
    7.7489    2.7911   15.7655 H   0  0
    4.8377    2.4827   16.2289 H   0  0
    5.5880    2.9094   14.2764 C   0  0
    6.3421   -1.9932   14.4824 H   0  0
    5.9402   -2.2746   16.5827 C   0  0
    4.5854   -3.8484   14.7490 H   0  0
    4.8075    2.4663   13.8355 H   0  0
    6.4121    2.7497   13.7330 H   0  0
    5.4185    3.8927   14.3430 H   0  0
    6.3045   -3.2058   16.5874 H   0  0
    5.1638   -2.2178   17.2104 H   0  0
    6.6527   -1.6371   16.8760 H   0  0
  1  2  1  0  0  0
  1  9  1  0  0  0
  1 10  1  0  0  0
  2  3  1  0  0  0
  2 11  1  0  0  0
  2 12  1  0  0  0
  3  4  2  0  0  0
  3  5  1  0  0  0
  5  6  1  0  0  0
  6  7  1  0  0  0
  6 13  1  0  0  0
  6 14  1  0  0  0
  7  8  2  0  0  0
  7 15  1  0  0  0
 12 16  1  0  0  0
 12 17  1  0  0  0
 12 18  1  0  0  0
 14 19  1  0  0  0
 14 20  1  0  0  0
 14 21  1  0  0  0
M  END
$$$$