carba
  DSViewer          3D                             0

 24 23  0  0  0  0  0  0  0  0999 V2000
    6.7511    3.0583   15.7143 N   0  0
    5.6323    2.1167   15.5956 C   0  0  2  0  0  0
    6.1794    0.6857   15.4416 C   0  0
    5.0072   -0.3045   15.3189 C   0  0
    5.5475   -1.7390   15.1711 C   0  0  2  0  0  0
    4.4043   -2.6995   15.0397 C   0  0
    3.2441   -2.2730   15.0322 O   0  0
    7.3328    2.7952   16.5221 H   0  0
    7.3230    3.0157   14.8592 H   0  0
    5.0009    2.1824   16.4937 H   0  0
    4.7889    2.4899   14.3604 C   0  0
    4.4377   -0.2475   16.1389 H   0  0
    6.1848   -1.8136   14.2781 H   0  0
    6.3942   -2.1293   16.3987 C   0  0
    4.5794   -3.6807   14.9585 H   0  0
    4.0240    1.8517   14.2733 H   0  0
    5.3585    2.4406   13.5400 H   0  0
    4.4362    3.4197   14.4656 H   0  0
    6.7361   -3.0622   16.2854 H   0  0
    5.8301   -2.0794   17.2229 H   0  0
    7.1666   -1.5000   16.4852 H   0  0
    6.7469    0.6330   14.6199 H   0  0
    6.7299    0.4519   16.2430 H   0  0
    4.4595   -0.0720   14.5152 H   0  0
  1  2  1  0  0  0
  1  8  1  0  0  0
  1  9  1  0  0  0
  2  3  1  0  0  0
  2 10  1  0  0  0
  2 11  1  0  0  0
  3  4  1  0  0  0
  4  5  1  0  0  0
  4 12  1  0  0  0
  5  6  1  0  0  0
  5 13  1  0  0  0
  5 14  1  0  0  0
  6  7  2  0  0  0
  6 15  1  0  0  0
 11 16  1  0  0  0
 11 17  1  0  0  0
 11 18  1  0  0  0
 14 19  1  0  0  0
 14 20  1  0  0  0
 14 21  1  0  0  0
  3 22  1  0  0  0
  3 23  1  0  0  0
  4 24  1  0  0  0
M  END
$$$$