phosphinate
  DSViewer          3D                             0

 25 24  0  0  0  0  0  0  0  0999 V2000
    6.9712    2.9080   15.8276 N   0  0
    5.7952    2.1495   15.4493 C   0  0  2  0  0  0
    6.1683    0.6257   15.6795 P   0  0
    7.1837    0.4196   14.8313 O   0  0
    4.9029   -0.3429   15.4239 C   0  0
    5.3745   -1.6767   14.8169 C   0  0  2  0  0  0
    4.1806   -2.5245   14.5249 C   0  0
    3.1563   -2.0087   14.0611 O   0  0
    7.1975    2.7004   16.8049 H   0  0
    7.7558    2.6056   15.2293 H   0  0
    4.9345    2.4397   16.0718 H   0  0
    5.4648    2.3995   13.9658 C   0  0
    4.4406   -0.5197   16.2928 H   0  0
    5.8971   -1.4580   13.8744 H   0  0
    6.3249   -2.4304   15.7707 C   0  0
    4.2089   -3.5079   14.7041 H   0  0
    4.6531    1.8737   13.7114 H   0  0
    6.2375    2.1138   13.3989 H   0  0
    5.2889    3.3734   13.8225 H   0  0
    6.6111   -3.2895   15.3466 H   0  0
    5.8507   -2.6249   16.6294 H   0  0
    7.1295   -1.8659   15.9551 H   0  0
    6.6829    0.5252   17.0832 O   0  0
    7.5080    1.0651   17.1698 H   0  0
    4.2679    0.1020   14.7924 H   0  0
  1  2  1  0  0  0
  1  9  1  0  0  0
  1 10  1  0  0  0
  2  3  1  0  0  0
  2 11  1  0  0  0
  2 12  1  0  0  0
  3  4  2  0  0  0
  3  5  1  0  0  0
  5  6  1  0  0  0
  5 13  1  0  0  0
  6  7  1  0  0  0
  6 14  1  0  0  0
  6 15  1  0  0  0
  7  8  2  0  0  0
  7 16  1  0  0  0
 12 17  1  0  0  0
 12 18  1  0  0  0
 12 19  1  0  0  0
 15 20  1  0  0  0
 15 21  1  0  0  0
 15 22  1  0  0  0
  3 23  1  0  0  0
 23 24  1  0  0  0
  5 25  1  0  0  0
M  END
$$$$