depsi
  DSViewer          3D                             0

 21 20  0  0  0  0  0  0  0  0999 V2000
    6.8095    2.7840   16.2882 N   0  0
    5.7075    2.1030   15.6401 C   0  0  2  0  0  0
    6.0480    0.6681   15.5481 C   0  0
    7.2235    0.3297   15.7272 O   0  0
    5.0592   -0.2571   15.2465 O   0  0
    5.5549   -1.6065   15.2264 C   0  0  2  0  0  0
    4.4646   -2.4942   14.7392 C   0  0
    3.3926   -1.9898   14.3875 O   0  0
    6.9540    2.3595   17.2124 H   0  0
    7.6563    2.6366   15.7240 H   0  0
    4.7528    2.2442   16.1691 H   0  0
    5.5193    2.6609   14.2181 C   0  0
    6.4148   -1.6841   14.5456 H   0  0
    5.9847   -2.0987   16.6340 C   0  0
    4.5974   -3.4844   14.6970 H   0  0
    4.7583    2.1894   13.7726 H   0  0
    6.3557    2.5163   13.6894 H   0  0
    5.3215    3.6399   14.2671 H   0  0
    6.3212   -3.0383   16.5707 H   0  0
    5.1997   -2.0673   17.2527 H   0  0
    6.7107   -1.5083   16.9868 H   0  0
  1  2  1  0  0  0
  1  9  1  0  0  0
  1 10  1  0  0  0
  2  3  1  0  0  0
  2 11  1  0  0  0
  2 12  1  0  0  0
  3  4  2  0  0  0
  3  5  1  0  0  0
  5  6  1  0  0  0
  6  7  1  0  0  0
  6 13  1  0  0  0
  6 14  1  0  0  0
  7  8  2  0  0  0
  7 15  1  0  0  0
 12 16  1  0  0  0
 12 17  1  0  0  0
 12 18  1  0  0  0
 14 19  1  0  0  0
 14 20  1  0  0  0
 14 21  1  0  0  0
M  END
$$$$