reduced_amide
  DSViewer          3D                             0

 23 22  0  0  0  0  0  0  0  0999 V2000
    6.7293    2.9258   16.2362 N   0  0
    5.7009    2.0109   15.7560 C   0  0  2  0  0  0
    6.2436    0.5745   15.8191 C   0  0
    5.2442   -0.3328   15.3638 N   0  0
    5.5250   -1.7241   15.2669 C   0  0  2  0  0  0
    4.3709   -2.3923   14.6134 C   0  0
    3.3817   -1.7052   14.3354 O   0  0
    6.9915    2.6641   17.1965 H   0  0
    7.5569    2.8493   15.6296 H   0  0
    4.8025    2.1056   16.3845 H   0  0
    5.3413    2.3749   14.3010 C   0  0
    4.3392   -0.0003   15.1096 H   0  0
    6.4519   -1.8937   14.7004 H   0  0
    5.7487   -2.3167   16.6704 C   0  0
    4.3935   -3.3700   14.4044 H   0  0
    4.6359    1.7507   13.9654 H   0  0
    6.1560    2.2967   13.7263 H   0  0
    4.9987    3.3138   14.2668 H   0  0
    5.9452   -3.2941   16.5926 H   0  0
    4.9257   -2.1856   17.2232 H   0  0
    6.5207   -1.8558   17.1082 H   0  0
    7.0527    0.4984   15.2364 H   0  0
    6.4896    0.3527   16.7627 H   0  0
  1  2  1  0  0  0
  1  8  1  0  0  0
  1  9  1  0  0  0
  2  3  1  0  0  0
  2 10  1  0  0  0
  2 11  1  0  0  0
  3  4  1  0  0  0
  4  5  1  0  0  0
  4 12  1  0  0  0
  5  6  1  0  0  0
  5 13  1  0  0  0
  5 14  1  0  0  0
  6  7  2  0  0  0
  6 15  1  0  0  0
 11 16  1  0  0  0
 11 17  1  0  0  0
 11 18  1  0  0  0
 14 19  1  0  0  0
 14 20  1  0  0  0
 14 21  1  0  0  0
  3 22  1  0  0  0
  3 23  1  0  0  0
M  END
$$$$