dihydroxyethylene
  DSViewer          3D                             0

 26 25  0  0  0  0  0  0  0  0999 V2000
    6.8095    3.1065   15.7148 N   0  0
    5.6490    2.2287   15.6192 C   0  0  2  0  0  0
    6.1982    0.7805   15.4399 C   0  0  1  0  0  0
    7.0598    0.6043   16.5589 O   0  0
    5.0318   -0.3224   15.3795 C   0  0  2  0  0  0
    5.5582   -1.8116   15.2317 C   0  0  2  0  0  0
    4.3966   -2.7725   15.1403 C   0  0
    3.2650   -2.3656   14.8492 O   0  0
    7.4072    2.7764   16.4863 H   0  0
    7.3394    3.0573   14.8373 H   0  0
    5.0700    2.2940   16.5514 H   0  0
    4.7682    2.7167   14.4471 C   0  0
    4.4266   -0.2557   16.2946 H   0  0
    6.1524   -1.8922   14.3105 H   0  0
    6.4287   -2.2922   16.4105 C   0  0
    4.5434   -3.7458   15.3165 H   0  0
    3.9652    2.1265   14.3646 H   0  0
    5.2946    2.6832   13.5975 H   0  0
    4.4739    3.6568   14.6195 H   0  0
    6.7216   -3.2342   16.2468 H   0  0
    5.8971   -2.2511   17.2565 H   0  0
    7.2327   -1.7033   16.4935 H   0  0
    4.2103   -0.0541   14.2445 O   0  0
    7.5293   -0.2468   16.4963 H   0  0
    6.7953    0.7296   14.5166 H   0  0
    3.4588   -0.7120   14.2170 H   0  0
  1  2  1  0  0  0
  1  9  1  0  0  0
  1 10  1  0  0  0
  2  3  1  0  0  0
  2 11  1  0  0  0
  2 12  1  0  0  0
  3  4  1  0  0  0
  3  5  1  0  0  0
  5  6  1  0  0  0
  5 13  1  0  0  0
  6  7  1  0  0  0
  6 14  1  0  0  0
  6 15  1  0  0  0
  7  8  2  0  0  0
  7 16  1  0  0  0
 12 17  1  0  0  0
 12 18  1  0  0  0
 12 19  1  0  0  0
 15 20  1  0  0  0
 15 21  1  0  0  0
 15 22  1  0  0  0
  5 23  1  0  0  0
  4 24  1  0  0  0
  3 25  1  0  0  0
 23 26  1  0  0  0
M  END
$$$$