peptide_bond
  copyright 2023 drugdesign.org                             0

 22 21  0  0  0  0  0  0  0  0999 V2000
    6.7504    2.7854   16.3048 N   0  0
    5.6854    2.0868   15.6192 C   0  0  2  0  0  0
    6.1031    0.6782   15.4697 C   0  0
    7.3068    0.4106   15.4004 O   0  0
    5.1672   -0.3227   15.4241 N   0  0
    5.5775   -1.6654   15.2760 C   0  0  2  0  0  0
    4.4781   -2.3873   14.6076 C   0  0
    3.3924   -1.8055   14.5011 O   0  0
    6.9037    2.3340   17.2147 H   0  0
    7.6091    2.6936   15.7444 H   0  0
    4.7188    2.1675   16.1387 H   0  0
    5.5282    2.7087   14.2203 C   0  0
    4.1948   -0.1107   15.4754 H   0  0
    6.5234   -1.7402   14.7188 H   0  0
    5.7977   -2.2867   16.6673 C   0  0
    4.6064   -3.3137   14.2535 H   0  0
    4.7954    2.2400   13.7271 H   0  0
    6.3850    2.6121   13.7138 H   0  0
    5.3017    3.6786   14.3097 H   0  0
    6.0885   -3.2381   16.5657 H   0  0
    4.9438   -2.2533   17.1867 H   0  0
    6.5040   -1.7729   17.1543 H   0  0
  1  2  1  0  0  0
  1  9  1  0  0  0
  1 10  1  0  0  0
  2  3  1  0  0  0
  2 11  1  0  0  0
  2 12  1  0  0  0
  3  4  2  0  0  0
  3  5  1  0  0  0
  5  6  1  0  0  0
  5 13  1  0  0  0
  6  7  1  0  0  0
  6 14  1  0  0  0
  6 15  1  0  0  0
  7  8  2  0  0  0
  7 16  1  0  0  0
 12 17  1  0  0  0
 12 18  1  0  0  0
 12 19  1  0  0  0
 15 20  1  0  0  0
 15 21  1  0  0  0
 15 22  1  0  0  0
M  END
$$$$
thio
  copyright 2023 drugdesign.org                             0

 22 21  0  0  0  0  0  0  0  0999 V2000
    6.6875    2.8632   16.2652 N   0  0
    5.6447    2.1253   15.5685 C   0  0  2  0  0  0
    6.0729    0.7101   15.4093 C   0  0
    7.5962    0.3710   15.2957 S   0  0
    5.1203   -0.2939   15.3695 N   0  0
    5.5041   -1.6548   15.2193 C   0  0  2  0  0  0
    4.3905   -2.3688   14.5506 C   0  0
    3.3087   -1.7817   14.4372 O   0  0
    6.8503    2.4260   17.1825 H   0  0
    7.5555    2.8152   15.7142 H   0  0
    4.6729    2.1903   16.0804 H   0  0
    5.4807    2.7465   14.1704 C   0  0
    4.1525   -0.0666   15.4318 H   0  0
    6.4476   -1.7559   14.6631 H   0  0
    5.7078   -2.2801   16.6129 C   0  0
    4.5108   -3.2982   14.2015 H   0  0
    4.7678    2.2563   13.6689 H   0  0
    6.3448    2.6789   13.6717 H   0  0
    5.2226    3.7084   14.2608 H   0  0
    5.9779   -3.2376   16.5128 H   0  0
    4.8537   -2.2275   17.1304 H   0  0
    6.4241   -1.7814   17.1010 H   0  0
  1  2  1  0  0  0
  1  9  1  0  0  0
  1 10  1  0  0  0
  2  3  1  0  0  0
  2 11  1  0  0  0
  2 12  1  0  0  0
  3  4  2  0  0  0
  3  5  1  0  0  0
  5  6  1  0  0  0
  5 13  1  0  0  0
  6  7  1  0  0  0
  6 14  1  0  0  0
  6 15  1  0  0  0
  7  8  2  0  0  0
  7 16  1  0  0  0
 12 17  1  0  0  0
 12 18  1  0  0  0
 12 19  1  0  0  0
 15 20  1  0  0  0
 15 21  1  0  0  0
 15 22  1  0  0  0
M  END
$$$$
depsi
  copyright 2023 drugdesign.org                             0

 21 20  0  0  0  0  0  0  0  0999 V2000
    6.8095    2.7840   16.2882 N   0  0
    5.7075    2.1030   15.6401 C   0  0  2  0  0  0
    6.0480    0.6681   15.5481 C   0  0
    7.2235    0.3297   15.7272 O   0  0
    5.0592   -0.2571   15.2465 O   0  0
    5.5549   -1.6065   15.2264 C   0  0  2  0  0  0
    4.4646   -2.4942   14.7392 C   0  0
    3.3926   -1.9898   14.3875 O   0  0
    6.9540    2.3595   17.2124 H   0  0
    7.6563    2.6366   15.7240 H   0  0
    4.7528    2.2442   16.1691 H   0  0
    5.5193    2.6609   14.2181 C   0  0
    6.4148   -1.6841   14.5456 H   0  0
    5.9847   -2.0987   16.6340 C   0  0
    4.5974   -3.4844   14.6970 H   0  0
    4.7583    2.1894   13.7726 H   0  0
    6.3557    2.5163   13.6894 H   0  0
    5.3215    3.6399   14.2671 H   0  0
    6.3212   -3.0383   16.5707 H   0  0
    5.1997   -2.0673   17.2527 H   0  0
    6.7107   -1.5083   16.9868 H   0  0
  1  2  1  0  0  0
  1  9  1  0  0  0
  1 10  1  0  0  0
  2  3  1  0  0  0
  2 11  1  0  0  0
  2 12  1  0  0  0
  3  4  2  0  0  0
  3  5  1  0  0  0
  5  6  1  0  0  0
  6  7  1  0  0  0
  6 13  1  0  0  0
  6 14  1  0  0  0
  7  8  2  0  0  0
  7 15  1  0  0  0
 12 16  1  0  0  0
 12 17  1  0  0  0
 12 18  1  0  0  0
 14 19  1  0  0  0
 14 20  1  0  0  0
 14 21  1  0  0  0
M  END
$$$$
thioester
  copyright 2023 drugdesign.org                             0

 21 20  0  0  0  0  0  0  0  0999 V2000
    6.9110    2.9588   16.3392 N   0  0
    5.7812    2.3251   15.6862 C   0  0  2  0  0  0
    6.0756    0.8887   15.5691 C   0  0
    7.2229    0.4939   15.8012 O   0  0
    4.8145   -0.2382   15.1066 S   0  0
    5.4780   -1.9098   15.1580 C   0  0  2  0  0  0
    4.4189   -2.8627   14.7242 C   0  0
    3.3318   -2.4226   14.3330 O   0  0
    7.0483    2.5109   17.2545 H   0  0
    7.7489    2.7911   15.7655 H   0  0
    4.8377    2.4827   16.2289 H   0  0
    5.5880    2.9094   14.2764 C   0  0
    6.3421   -1.9932   14.4824 H   0  0
    5.9402   -2.2746   16.5827 C   0  0
    4.5854   -3.8484   14.7490 H   0  0
    4.8075    2.4663   13.8355 H   0  0
    6.4121    2.7497   13.7330 H   0  0
    5.4185    3.8927   14.3430 H   0  0
    6.3045   -3.2058   16.5874 H   0  0
    5.1638   -2.2178   17.2104 H   0  0
    6.6527   -1.6371   16.8760 H   0  0
  1  2  1  0  0  0
  1  9  1  0  0  0
  1 10  1  0  0  0
  2  3  1  0  0  0
  2 11  1  0  0  0
  2 12  1  0  0  0
  3  4  2  0  0  0
  3  5  1  0  0  0
  5  6  1  0  0  0
  6  7  1  0  0  0
  6 13  1  0  0  0
  6 14  1  0  0  0
  7  8  2  0  0  0
  7 15  1  0  0  0
 12 16  1  0  0  0
 12 17  1  0  0  0
 12 18  1  0  0  0
 14 19  1  0  0  0
 14 20  1  0  0  0
 14 21  1  0  0  0
M  END
$$$$
ketomethylene
  copyright 2023 drugdesign.org                             0

 23 22  0  0  0  0  0  0  0  0999 V2000
    6.8323    2.8418   16.3347 N   0  0
    5.7363    2.1692   15.6516 C   0  0  2  0  0  0
    6.0785    0.7372   15.5049 C   0  0
    7.2489    0.3862   15.6924 O   0  0
    5.0129   -0.2518   15.1226 C   0  0
    5.5281   -1.7032   15.1959 C   0  0  2  0  0  0
    4.4399   -2.6226   14.7481 C   0  0
    3.3408   -2.1560   14.4252 O   0  0
    6.9782    2.3886   17.2461 H   0  0
    7.6861    2.7275   15.7716 H   0  0
    4.7779    2.2829   16.1788 H   0  0
    5.5480    2.7791   14.2511 C   0  0
    4.2386   -0.1510   15.7472 H   0  0
    6.4039   -1.8320   14.5433 H   0  0
    5.9294   -2.0889   16.6392 C   0  0
    4.5987   -3.6092   14.7095 H   0  0
    4.7950    2.3159   13.7838 H   0  0
    6.3887    2.6651   13.7216 H   0  0
    5.3378    3.7530   14.3366 H   0  0
    6.2582   -3.0332   16.6531 H   0  0
    5.1348   -2.0043   17.2405 H   0  0
    6.6549   -1.4791   16.9582 H   0  0
    4.7145   -0.0609   14.1875 H   0  0
  1  2  1  0  0  0
  1  9  1  0  0  0
  1 10  1  0  0  0
  2  3  1  0  0  0
  2 11  1  0  0  0
  2 12  1  0  0  0
  3  4  2  0  0  0
  3  5  1  0  0  0
  5  6  1  0  0  0
  5 13  1  0  0  0
  6  7  1  0  0  0
  6 14  1  0  0  0
  6 15  1  0  0  0
  7  8  2  0  0  0
  7 16  1  0  0  0
 12 17  1  0  0  0
 12 18  1  0  0  0
 12 19  1  0  0  0
 15 20  1  0  0  0
 15 21  1  0  0  0
 15 22  1  0  0  0
  5 23  1  0  0  0
M  END
$$$$
N-methyl
  copyright 2023 drugdesign.org                             0

 25 24  0  0  0  0  0  0  0  0999 V2000
    6.7999    2.7422   16.2362 N   0  0
    5.6570    2.1521   15.5716 C   0  0  2  0  0  0
    5.9804    0.7000   15.3909 C   0  0
    7.1085    0.4059   14.9845 O   0  0
    5.0789   -0.3290   15.6936 N   0  0
    5.4987   -1.6804   15.4737 C   0  0  2  0  0  0
    4.4821   -2.3908   14.6349 C   0  0
    3.8944   -1.7827   13.7328 O   0  0
    6.9367    2.2662   17.1354 H   0  0
    7.6312    2.5826   15.6497 H   0  0
    4.7301    2.3317   16.1273 H   0  0
    5.5653    2.8256   14.1889 C   0  0
    3.7573   -0.0646   16.2178 C   0  0
    6.4691   -1.6732   14.9561 H   0  0
    5.6377   -2.4250   16.8138 C   0  0
    4.2788   -3.3552   14.8039 H   0  0
    4.7865    2.4506   13.6860 H   0  0
    6.4066    2.6525   13.6768 H   0  0
    5.4430    3.8113   14.3051 H   0  0
    5.9310   -3.3658   16.6441 H   0  0
    4.7558   -2.4312   17.2853 H   0  0
    6.3168   -1.9624   17.3838 H   0  0
    3.2772   -0.9294   16.3646 H   0  0
    3.2450    0.4940   15.5654 H   0  0
    3.8345    0.4249   17.0865 H   0  0
  1  2  1  0  0  0
  1  9  1  0  0  0
  1 10  1  0  0  0
  2  3  1  0  0  0
  2 11  1  0  0  0
  2 12  1  0  0  0
  3  4  2  0  0  0
  3  5  1  0  0  0
  5  6  1  0  0  0
  5 13  1  0  0  0
  6  7  1  0  0  0
  6 14  1  0  0  0
  6 15  1  0  0  0
  7  8  2  0  0  0
  7 16  1  0  0  0
 12 17  1  0  0  0
 12 18  1  0  0  0
 12 19  1  0  0  0
 15 20  1  0  0  0
 15 21  1  0  0  0
 15 22  1  0  0  0
 13 23  1  0  0  0
 13 24  1  0  0  0
 13 25  1  0  0  0
M  END
$$$$
retro-inverso
  copyright 2023 drugdesign.org                             0

 22 21  0  0  0  0  0  0  0  0999 V2000
    6.7824    2.8251   16.3110 N   0  0
    5.7044    2.1168   15.5869 C   0  0  2  0  0  0
    6.0453    0.7372   15.3676 N   0  0
    5.1160   -0.2579   15.6940 C   0  0
    5.4214   -1.7079   15.4091 C   0  0  2  0  0  0
    4.1988   -2.3651   14.8091 C   0  0
    3.9122   -2.1820   13.6185 O   0  0
    6.9417    2.3739   17.2237 H   0  0
    7.6504    2.7977   15.7588 H   0  0
    4.7549    2.1885   16.1387 H   0  0
    5.5423    2.8008   14.2196 C   0  0
    4.0413    0.0614   16.2185 O   0  0
    6.2923   -1.7765   14.7387 H   0  0
    5.7096   -2.4090   16.7494 C   0  0
    3.6193   -2.9503   15.3764 H   0  0
    4.8183    2.3448   13.7020 H   0  0
    6.4021    2.7411   13.7125 H   0  0
    5.3008    3.7619   14.3537 H   0  0
    5.9150   -3.3736   16.5842 H   0  0
    4.9083   -2.3364   17.3433 H   0  0
    6.4930   -1.9731   17.1925 H   0  0
    6.9227    0.4910   14.9627 H   0  0
  1  2  1  0  0  0
  1  8  1  0  0  0
  1  9  1  0  0  0
  2  3  1  0  0  0
  2 10  1  0  0  0
  2 11  1  0  0  0
  3  4  1  0  0  0
  4  5  1  0  0  0
  4 12  2  0  0  0
  5  6  1  0  0  0
  5 13  1  0  0  0
  5 14  1  0  0  0
  6  7  2  0  0  0
  6 15  1  0  0  0
 11 16  1  0  0  0
 11 17  1  0  0  0
 11 18  1  0  0  0
 14 19  1  0  0  0
 14 20  1  0  0  0
 14 21  1  0  0  0
  3 22  1  0  0  0
M  END
$$$$
reduced_amide
  copyright 2023 drugdesign.org                             0

 23 22  0  0  0  0  0  0  0  0999 V2000
    6.7293    2.9258   16.2362 N   0  0
    5.7009    2.0109   15.7560 C   0  0  2  0  0  0
    6.2436    0.5745   15.8191 C   0  0
    5.2442   -0.3328   15.3638 N   0  0
    5.5250   -1.7241   15.2669 C   0  0  2  0  0  0
    4.3709   -2.3923   14.6134 C   0  0
    3.3817   -1.7052   14.3354 O   0  0
    6.9915    2.6641   17.1965 H   0  0
    7.5569    2.8493   15.6296 H   0  0
    4.8025    2.1056   16.3845 H   0  0
    5.3413    2.3749   14.3010 C   0  0
    4.3392   -0.0003   15.1096 H   0  0
    6.4519   -1.8937   14.7004 H   0  0
    5.7487   -2.3167   16.6704 C   0  0
    4.3935   -3.3700   14.4044 H   0  0
    4.6359    1.7507   13.9654 H   0  0
    6.1560    2.2967   13.7263 H   0  0
    4.9987    3.3138   14.2668 H   0  0
    5.9452   -3.2941   16.5926 H   0  0
    4.9257   -2.1856   17.2232 H   0  0
    6.5207   -1.8558   17.1082 H   0  0
    7.0527    0.4984   15.2364 H   0  0
    6.4896    0.3527   16.7627 H   0  0
  1  2  1  0  0  0
  1  8  1  0  0  0
  1  9  1  0  0  0
  2  3  1  0  0  0
  2 10  1  0  0  0
  2 11  1  0  0  0
  3  4  1  0  0  0
  4  5  1  0  0  0
  4 12  1  0  0  0
  5  6  1  0  0  0
  5 13  1  0  0  0
  5 14  1  0  0  0
  6  7  2  0  0  0
  6 15  1  0  0  0
 11 16  1  0  0  0
 11 17  1  0  0  0
 11 18  1  0  0  0
 14 19  1  0  0  0
 14 20  1  0  0  0
 14 21  1  0  0  0
  3 22  1  0  0  0
  3 23  1  0  0  0
M  END
$$$$
sulfonamide
  copyright 2023 drugdesign.org                             0

 23 22  0  0  0  0  0  0  0  0999 V2000
    6.7798    3.0996   15.5754 N   0  0
    5.6079    2.2945   15.4828 C   0  0  2  0  0  0
    6.2855    0.6882   15.6223 S   0  0
    7.2793    0.4932   14.4980 O   0  0
    5.1348   -0.4755   15.5741 N   0  0
    5.5050   -1.7302   15.1097 C   0  0  2  0  0  0
    4.5320   -2.0653   14.0857 C   0  0
    3.5793   -1.2919   13.9461 O   0  0
    7.2358    2.8500   16.4691 H   0  0
    7.4051    2.7991   14.8131 H   0  0
    4.9131    2.5105   16.3075 H   0  0
    4.9008    2.4853   14.1298 C   0  0
    4.1914   -0.2790   15.8160 H   0  0
    6.5301   -1.7174   14.7052 H   0  0
    5.4121   -2.7611   16.2439 C   0  0
    4.6286   -2.8841   13.5198 H   0  0
    4.0846    1.9087   14.0955 H   0  0
    5.5217    2.2276   13.3894 H   0  0
    4.6360    3.4437   14.0238 H   0  0
    5.6804   -3.6609   15.9000 H   0  0
    4.4720   -2.8010   16.5825 H   0  0
    6.0233   -2.4937   16.9889 H   0  0
    7.0303    0.6320   16.9374 O   0  0
  1  2  1  0  0  0
  1  9  1  0  0  0
  1 10  1  0  0  0
  2  3  1  0  0  0
  2 11  1  0  0  0
  2 12  1  0  0  0
  3  4  2  0  0  0
  3  5  1  0  0  0
  5  6  1  0  0  0
  5 13  1  0  0  0
  6  7  1  0  0  0
  6 14  1  0  0  0
  6 15  1  0  0  0
  7  8  2  0  0  0
  7 16  1  0  0  0
 12 17  1  0  0  0
 12 18  1  0  0  0
 12 19  1  0  0  0
 15 20  1  0  0  0
 15 21  1  0  0  0
 15 22  1  0  0  0
  3 23  2  0  0  0
M  END
$$$$
phosphonamide
  copyright 2023 drugdesign.org                             0

 24 23  0  0  0  0  0  0  0  0999 V2000
    6.7534    3.0614   15.5951 N   0  0
    5.6353    2.1596   15.4803 C   0  0  2  0  0  0
    6.2576    0.7083   15.6110 P   0  0
    7.1173    0.3908   14.6358 O   0  0
    5.2067   -0.3519   15.5566 N   0  0
    5.5388   -1.6494   15.0949 C   0  0  2  0  0  0
    4.5432   -2.0049   14.0634 C   0  0
    3.5153   -1.3214   13.9880 O   0  0
    7.2190    2.8802   16.4940 H   0  0
    7.4131    2.8481   14.8350 H   0  0
    4.9098    2.3524   16.2863 H   0  0
    4.9522    2.3368   14.1112 C   0  0
    4.2597   -0.1394   15.7876 H   0  0
    6.5638   -1.6979   14.6995 H   0  0
    5.3932   -2.6518   16.2517 C   0  0
    4.6957   -2.7754   13.4444 H   0  0
    4.1782    1.7076   14.0404 H   0  0
    5.6086    2.1403   13.3828 H   0  0
    4.6257    3.2776   14.0204 H   0  0
    5.6268   -3.5692   15.9298 H   0  0
    4.4494   -2.6453   16.5823 H   0  0
    6.0086   -2.3936   16.9965 H   0  0
    6.9942    0.5977   16.9180 O   0  0
    7.4835   -0.2625   16.9645 H   0  0
  1  2  1  0  0  0
  1  9  1  0  0  0
  1 10  1  0  0  0
  2  3  1  0  0  0
  2 11  1  0  0  0
  2 12  1  0  0  0
  3  4  2  0  0  0
  3  5  1  0  0  0
  5  6  1  0  0  0
  5 13  1  0  0  0
  6  7  1  0  0  0
  6 14  1  0  0  0
  6 15  1  0  0  0
  7  8  2  0  0  0
  7 16  1  0  0  0
 12 17  1  0  0  0
 12 18  1  0  0  0
 12 19  1  0  0  0
 15 20  1  0  0  0
 15 21  1  0  0  0
 15 22  1  0  0  0
  3 23  1  0  0  0
 23 24  1  0  0  0
M  END
$$$$
hydroxyethylene
  copyright 2023 drugdesign.org                             0

 25 24  0  0  0  0  0  0  0  0999 V2000
    6.7218    3.0920   15.6609 N   0  0
    5.6302    2.1310   15.6165 C   0  0  2  0  0  0
    6.2482    0.7458   15.4782 C   0  0  1  0  0  0
    7.1267    0.5920   16.5953 O   0  0
    5.0963   -0.3111   15.4374 C   0  0
    5.5585   -1.7888   15.2569 C   0  0  2  0  0  0
    4.3389   -2.6439   15.1238 C   0  0
    3.2927   -2.1480   14.6913 O   0  0
    7.3405    2.8468   16.4500 H   0  0
    7.2576    3.0332   14.7875 H   0  0
    5.0474    2.1956   16.5472 H   0  0
    4.7077    2.4304   14.4181 C   0  0
    4.5885   -0.2485   16.2967 H   0  0
    6.1420   -1.8661   14.3285 H   0  0
    6.4034   -2.3303   16.4279 C   0  0
    4.3696   -3.6093   15.3826 H   0  0
    3.9617    1.7649   14.3968 H   0  0
    5.2328    2.3691   13.5692 H   0  0
    4.3295    3.3515   14.5100 H   0  0
    6.6620   -3.2783   16.2426 H   0  0
    5.8685   -2.2901   17.2720 H   0  0
    7.2282   -1.7741   16.5296 H   0  0
    4.4917   -0.0806   14.6749 H   0  0
    7.5945   -0.2673   16.5453 H   0  0
    6.8278    0.6958   14.5449 H   0  0
  1  2  1  0  0  0
  1  9  1  0  0  0
  1 10  1  0  0  0
  2  3  1  0  0  0
  2 11  1  0  0  0
  2 12  1  0  0  0
  3  4  1  0  0  0
  3  5  1  0  0  0
  5  6  1  0  0  0
  5 13  1  0  0  0
  6  7  1  0  0  0
  6 14  1  0  0  0
  6 15  1  0  0  0
  7  8  2  0  0  0
  7 16  1  0  0  0
 12 17  1  0  0  0
 12 18  1  0  0  0
 12 19  1  0  0  0
 15 20  1  0  0  0
 15 21  1  0  0  0
 15 22  1  0  0  0
  5 23  1  0  0  0
  4 24  1  0  0  0
  3 25  1  0  0  0
M  END
$$$$
dihydroxyethylene
  copyright 2023 drugdesign.org                             0

 26 25  0  0  0  0  0  0  0  0999 V2000
    6.8095    3.1065   15.7148 N   0  0
    5.6490    2.2287   15.6192 C   0  0  2  0  0  0
    6.1982    0.7805   15.4399 C   0  0  1  0  0  0
    7.0598    0.6043   16.5589 O   0  0
    5.0318   -0.3224   15.3795 C   0  0  2  0  0  0
    5.5582   -1.8116   15.2317 C   0  0  2  0  0  0
    4.3966   -2.7725   15.1403 C   0  0
    3.2650   -2.3656   14.8492 O   0  0
    7.4072    2.7764   16.4863 H   0  0
    7.3394    3.0573   14.8373 H   0  0
    5.0700    2.2940   16.5514 H   0  0
    4.7682    2.7167   14.4471 C   0  0
    4.4266   -0.2557   16.2946 H   0  0
    6.1524   -1.8922   14.3105 H   0  0
    6.4287   -2.2922   16.4105 C   0  0
    4.5434   -3.7458   15.3165 H   0  0
    3.9652    2.1265   14.3646 H   0  0
    5.2946    2.6832   13.5975 H   0  0
    4.4739    3.6568   14.6195 H   0  0
    6.7216   -3.2342   16.2468 H   0  0
    5.8971   -2.2511   17.2565 H   0  0
    7.2327   -1.7033   16.4935 H   0  0
    4.2103   -0.0541   14.2445 O   0  0
    7.5293   -0.2468   16.4963 H   0  0
    6.7953    0.7296   14.5166 H   0  0
    3.4588   -0.7120   14.2170 H   0  0
  1  2  1  0  0  0
  1  9  1  0  0  0
  1 10  1  0  0  0
  2  3  1  0  0  0
  2 11  1  0  0  0
  2 12  1  0  0  0
  3  4  1  0  0  0
  3  5  1  0  0  0
  5  6  1  0  0  0
  5 13  1  0  0  0
  6  7  1  0  0  0
  6 14  1  0  0  0
  6 15  1  0  0  0
  7  8  2  0  0  0
  7 16  1  0  0  0
 12 17  1  0  0  0
 12 18  1  0  0  0
 12 19  1  0  0  0
 15 20  1  0  0  0
 15 21  1  0  0  0
 15 22  1  0  0  0
  5 23  1  0  0  0
  4 24  1  0  0  0
  3 25  1  0  0  0
 23 26  1  0  0  0
M  END
$$$$
e-ethylene
  copyright 2023 drugdesign.org                             0

 22 21  0  0  0  0  0  0  0  0999 V2000
    6.7376    2.9637   15.6902 N   0  0
    5.5569    2.1055   15.5471 C   0  0  2  0  0  0
    5.9767    0.7124   15.1968 C   0  0
    5.2325   -0.3171   15.5888 C   0  0
    5.6431   -1.7139   15.2394 C   0  0  2  0  0  0
    4.4400   -2.5114   14.8352 C   0  0
    3.3090   -2.0829   15.0901 O   0  0
    7.3495    2.5806   16.4245 H   0  0
    7.2528    2.9837   14.7989 H   0  0
    4.9579    2.1039   16.4699 H   0  0
    4.6846    2.6625   14.4080 C   0  0
    4.3984   -0.1585   16.1171 H   0  0
    6.4050   -1.7224   14.4461 H   0  0
    6.2439   -2.3786   16.4906 C   0  0
    4.5518   -3.3852   14.3620 H   0  0
    3.8738    2.0879   14.2968 H   0  0
    5.2094    2.6658   13.5567 H   0  0
    4.4031    3.5962   14.6292 H   0  0
    6.5226   -3.3134   16.2708 H   0  0
    5.5594   -2.3980   17.2195 H   0  0
    7.0405   -1.8567   16.7959 H   0  0
    6.8127    0.5567   14.6706 H   0  0
  1  2  1  0  0  0
  1  8  1  0  0  0
  1  9  1  0  0  0
  2  3  1  0  0  0
  2 10  1  0  0  0
  2 11  1  0  0  0
  3  4  2  0  0  0
  4  5  1  0  0  0
  4 12  1  0  0  0
  5  6  1  0  0  0
  5 13  1  0  0  0
  5 14  1  0  0  0
  6  7  2  0  0  0
  6 15  1  0  0  0
 11 16  1  0  0  0
 11 17  1  0  0  0
 11 18  1  0  0  0
 14 19  1  0  0  0
 14 20  1  0  0  0
 14 21  1  0  0  0
  3 22  1  0  0  0
M  END
$$$$
carba
  copyright 2023 drugdesign.org                             0

 24 23  0  0  0  0  0  0  0  0999 V2000
    6.7511    3.0583   15.7143 N   0  0
    5.6323    2.1167   15.5956 C   0  0  2  0  0  0
    6.1794    0.6857   15.4416 C   0  0
    5.0072   -0.3045   15.3189 C   0  0
    5.5475   -1.7390   15.1711 C   0  0  2  0  0  0
    4.4043   -2.6995   15.0397 C   0  0
    3.2441   -2.2730   15.0322 O   0  0
    7.3328    2.7952   16.5221 H   0  0
    7.3230    3.0157   14.8592 H   0  0
    5.0009    2.1824   16.4937 H   0  0
    4.7889    2.4899   14.3604 C   0  0
    4.4377   -0.2475   16.1389 H   0  0
    6.1848   -1.8136   14.2781 H   0  0
    6.3942   -2.1293   16.3987 C   0  0
    4.5794   -3.6807   14.9585 H   0  0
    4.0240    1.8517   14.2733 H   0  0
    5.3585    2.4406   13.5400 H   0  0
    4.4362    3.4197   14.4656 H   0  0
    6.7361   -3.0622   16.2854 H   0  0
    5.8301   -2.0794   17.2229 H   0  0
    7.1666   -1.5000   16.4852 H   0  0
    6.7469    0.6330   14.6199 H   0  0
    6.7299    0.4519   16.2430 H   0  0
    4.4595   -0.0720   14.5152 H   0  0
  1  2  1  0  0  0
  1  8  1  0  0  0
  1  9  1  0  0  0
  2  3  1  0  0  0
  2 10  1  0  0  0
  2 11  1  0  0  0
  3  4  1  0  0  0
  4  5  1  0  0  0
  4 12  1  0  0  0
  5  6  1  0  0  0
  5 13  1  0  0  0
  5 14  1  0  0  0
  6  7  2  0  0  0
  6 15  1  0  0  0
 11 16  1  0  0  0
 11 17  1  0  0  0
 11 18  1  0  0  0
 14 19  1  0  0  0
 14 20  1  0  0  0
 14 21  1  0  0  0
  3 22  1  0  0  0
  3 23  1  0  0  0
  4 24  1  0  0  0
M  END
$$$$
phosphinate
  copyright 2023 drugdesign.org                             0

 25 24  0  0  0  0  0  0  0  0999 V2000
    6.9712    2.9080   15.8276 N   0  0
    5.7952    2.1495   15.4493 C   0  0  2  0  0  0
    6.1683    0.6257   15.6795 P   0  0
    7.1837    0.4196   14.8313 O   0  0
    4.9029   -0.3429   15.4239 C   0  0
    5.3745   -1.6767   14.8169 C   0  0  2  0  0  0
    4.1806   -2.5245   14.5249 C   0  0
    3.1563   -2.0087   14.0611 O   0  0
    7.1975    2.7004   16.8049 H   0  0
    7.7558    2.6056   15.2293 H   0  0
    4.9345    2.4397   16.0718 H   0  0
    5.4648    2.3995   13.9658 C   0  0
    4.4406   -0.5197   16.2928 H   0  0
    5.8971   -1.4580   13.8744 H   0  0
    6.3249   -2.4304   15.7707 C   0  0
    4.2089   -3.5079   14.7041 H   0  0
    4.6531    1.8737   13.7114 H   0  0
    6.2375    2.1138   13.3989 H   0  0
    5.2889    3.3734   13.8225 H   0  0
    6.6111   -3.2895   15.3466 H   0  0
    5.8507   -2.6249   16.6294 H   0  0
    7.1295   -1.8659   15.9551 H   0  0
    6.6829    0.5252   17.0832 O   0  0
    7.5080    1.0651   17.1698 H   0  0
    4.2679    0.1020   14.7924 H   0  0
  1  2  1  0  0  0
  1  9  1  0  0  0
  1 10  1  0  0  0
  2  3  1  0  0  0
  2 11  1  0  0  0
  2 12  1  0  0  0
  3  4  2  0  0  0
  3  5  1  0  0  0
  5  6  1  0  0  0
  5 13  1  0  0  0
  6  7  1  0  0  0
  6 14  1  0  0  0
  6 15  1  0  0  0
  7  8  2  0  0  0
  7 16  1  0  0  0
 12 17  1  0  0  0
 12 18  1  0  0  0
 12 19  1  0  0  0
 15 20  1  0  0  0
 15 21  1  0  0  0
 15 22  1  0  0  0
  3 23  1  0  0  0
 23 24  1  0  0  0
  5 25  1  0  0  0
M  END
$$$$
