peptide
  DSViewer          3D                             0

 48 50  0  0  0  0  0  0  0  0999 V2000
   -4.4457   -0.7339    0.0083 N   0  0
   -3.2798   -0.6005    0.8782 C   0  0  2  0  0  0
   -2.1644    0.3064    0.3409 C   0  0
   -2.3411    1.0210   -0.6297 O   0  0
   -2.8366   -2.0714    1.0493 C   0  0
   -4.1109   -2.9138    0.8434 C   0  0
   -4.9253   -2.0237   -0.0721 C   0  0
   -5.8671   -2.3504   -0.7647 O   0  0
   -0.8473   -0.3020    1.8210 H   0  0
   -0.9406    0.3036    1.0048 N   0  0
    0.1974    1.1389    0.5572 C   0  0  2  0  0  0
    1.3892    0.2911    0.0775 C   0  0
    2.4145    0.2489    0.7390 O   0  0
    0.5715    2.0800    1.7171 C   0  0
    1.6051    3.1431    1.4080 C   0  0
    2.0452    4.0475    2.2872 N   0  0
    2.2511    3.4085    0.2592 C   0  0
    2.9321    4.8067    1.6474 C   0  0
    3.0777    4.4530    0.4210 N   0  0
    1.7764    4.1363    3.2692 H   0  0
    0.1671   -0.4744   -1.9770 C   0  0
    1.3219   -0.4505   -1.1030 N   0  0
    2.5138   -1.1618   -1.5598 C   0  0  2  0  0  0
    3.5691   -0.2545   -2.2085 C   0  0
    3.3256    0.8662   -2.6200 O   0  0
    1.8666   -2.0943   -2.6037 C   0  0
    0.7280   -1.2386   -3.1922 C   0  0
   -4.8982    0.0002   -0.5401 H   0  0
    4.8589   -0.7341   -2.3676 N   0  0
    5.5153   -0.0783   -2.7937 H   0  0
    5.1184   -1.6570   -2.0226 H   0  0
   -3.6262   -0.1765    1.8511 H   0  0
   -2.1065   -2.3318    0.2448 H   0  0
   -2.3495   -2.2658    2.0350 H   0  0
   -3.9149   -3.9167    0.3948 H   0  0
   -4.6667   -3.0271    1.8044 H   0  0
   -0.0955    1.7898   -0.2994 H   0  0
   -0.3439    2.6246    2.0505 H   0  0
    0.9337    1.4865    2.5898 H   0  0
    2.1512    2.8812   -0.7171 H   0  0
    3.4846    5.6550    2.1138 H   0  0
   -0.6469   -1.0627   -1.4935 H   0  0
   -0.1812    0.5448   -2.2665 H   0  0
    2.9842   -1.7539   -0.7375 H   0  0
    2.5860   -2.4557   -3.3770 H   0  0
    1.4262   -2.9861   -2.0940 H   0  0
   -0.0482   -1.8481   -3.7145 H   0  0
    1.1563   -0.5178   -3.9306 H   0  0
  1  2  1  0  0  0
  1  7  1  0  0  0
  1 28  1  0  0  0
  2  3  1  0  0  0
  2  5  1  0  0  0
  2 32  1  0  0  0
  3  4  2  0  0  0
  3 10  1  0  0  0
  5  6  1  0  0  0
  5 33  1  0  0  0
  5 34  1  0  0  0
  6  7  1  0  0  0
  6 35  1  0  0  0
  6 36  1  0  0  0
  7  8  2  0  0  0
  9 10  1  0  0  0
 10 11  1  0  0  0
 11 12  1  0  0  0
 11 14  1  0  0  0
 11 37  1  0  0  0
 12 13  2  0  0  0
 12 22  1  0  0  0
 14 15  1  0  0  0
 14 38  1  0  0  0
 14 39  1  0  0  0
 15 16  4  0  0  0
 15 17  4  0  0  0
 16 18  4  0  0  0
 16 20  1  0  0  0
 17 19  4  0  0  0
 17 40  1  0  0  0
 18 19  4  0  0  0
 18 41  1  0  0  0
 21 22  1  0  0  0
 21 27  1  0  0  0
 21 42  1  0  0  0
 21 43  1  0  0  0
 22 23  1  0  0  0
 23 24  1  0  0  0
 23 26  1  0  0  0
 23 44  1  0  0  0
 24 25  2  0  0  0
 24 29  1  0  0  0
 26 27  1  0  0  0
 26 45  1  0  0  0
 26 46  1  0  0  0
 27 47  1  0  0  0
 27 48  1  0  0  0
 29 30  1  0  0  0
 29 31  1  0  0  0
M  END
$$$$