A72517
  copyright 2023 drugdesign.org                             0

 53 56  0  0  0  0  0  0  0  0999 V2000
    1.3100    6.5080  -17.2900 S   0  0
    0.0690    6.4940  -16.5430 O   0  0
    1.8410    5.2410  -17.7460 O   0  0
    0.1660    7.2320  -19.7750 C   0  0  2  0  0  0
    0.2920    8.1800  -20.9580 C   0  0
    0.3240    9.3960  -20.7920 O   0  0
   -1.2540    7.2700  -19.2080 C   0  0
   -2.3290    6.8030  -20.1580 C   0  0
   -2.4800    5.4340  -20.4450 C   0  0
   -3.1970    7.7300  -20.7640 C   0  0
   -3.4880    4.9950  -21.3210 C   0  0
   -4.2060    7.2960  -21.6410 C   0  0
   -4.3530    5.9270  -21.9180 C   0  0
    1.1720    7.6340  -18.6980 C   0  0
    0.3800    7.6330  -22.1680 N   0  0
    0.4480    8.4510  -23.3610 C   0  0  2  0  0  0
   -0.4040    7.7980  -24.4440 C   0  0
   -0.4100    6.5760  -24.5860 O   0  0
    1.9030    8.5510  -23.8200 C   0  0
    2.0650    9.3750  -25.0770 C   0  0
    2.8580    8.9810  -26.1500 C   0  0
    1.4160   10.6150  -25.2810 N   0  0
    2.8070   10.1380  -27.4100 S   0  0
    1.7340   11.0780  -26.4360 C   0  0
    0.2960    6.6350  -22.2960 H   0  0
   -1.1110    8.6040  -25.2290 N   0  0
   -1.9000    8.0880  -26.3290 C   0  0  2  0  0  0
   -1.1490    8.3320  -27.6390 C   0  0  1  0  0  0
   -0.8170    9.7200  -27.7250 O   0  0
   -3.2720    8.7620  -26.3220 C   0  0
   -1.0180    9.6070  -25.1440 H   0  0
   -0.3940    9.8770  -28.5720 H   0  0
    0.8060    7.6010  -29.0850 C   0  0
   -0.0940    7.2920  -30.2890 C   0  0
   -0.1420    6.1390  -27.3830 O   0  0
    0.1460    7.5000  -27.7010 C   0  0  2  0  0  0
   -0.2670    6.0690  -26.4260 H   0  0
   -0.4070    5.7980  -30.3750 C   0  0
    0.5980    7.7360  -31.5740 C   0  0
   -5.4390    9.1650  -25.0840 C   0  0
   -6.3840    8.7380  -26.2160 C   0  0
   -6.6190    7.2230  -26.2280 C   0  0
   -5.3100    6.4230  -26.2050 C   0  0
   -4.3810    6.8800  -25.0740 C   0  0
   -4.1100    8.3940  -25.0930 C   0  0
    3.8060    7.2250  -16.8050 C   0  0
    2.4360    7.1520  -16.3260 N   0  0
    2.2590    7.0600  -14.8850 C   0  0
    3.1330    5.9380  -14.3000 C   0  0
    4.5450    6.1110  -14.7140 N   0  0
    4.6590    6.1020  -16.1910 C   0  0
    5.3040    4.9630  -14.1980 C   0  0
    4.1959    8.1098  -16.5497 H   0  0
  1  2  2  0  0  0
  1  3  2  0  0  0
  4 14  1  0  0  0
  4  5  1  0  0  0
  4  7  1  0  0  0
  5  6  2  0  0  0
  7  8  1  0  0  0
  8 10  1  0  0  0
  8  9  1  0  0  0
  9 11  1  0  0  0
 10 12  1  0  0  0
 11 13  1  0  0  0
 12 13  1  0  0  0
 15 16  1  0  0  0
 15 25  1  0  0  0
 16 17  1  0  0  0
 16 19  1  0  0  0
 17 18  2  0  0  0
 19 20  1  0  0  0
 20 22  1  0  0  0
 20 21  2  0  0  0
 21 23  1  0  0  0
 22 24  2  0  0  0
 23 24  1  0  0  0
 26 27  1  0  0  0
 26 31  1  0  0  0
 27 28  1  0  0  0
 27 30  1  0  0  0
 28 29  1  0  0  0
 29 32  1  0  0  0
 33 34  1  0  0  0
 33 36  1  0  0  0
 34 38  1  0  0  0
 35 36  1  0  0  0
 35 37  1  0  0  0
  1 14  1  0  0  0
  5 15  1  0  0  0
 17 26  1  0  0  0
 28 36  1  0  0  0
 34 39  1  0  0  0
 40 41  1  0  0  0
 40 45  1  0  0  0
 41 42  1  0  0  0
 42 43  1  0  0  0
 43 44  1  0  0  0
 44 45  1  0  0  0
 46 47  1  0  0  0
 46 51  1  0  0  0
 47 48  1  0  0  0
 48 49  1  0  0  0
 49 50  1  0  0  0
 50 51  1  0  0  0
 50 52  1  0  0  0
 46 53  1  0  0  0
  1 47  1  0  0  0
 30 45  1  0  0  0
M  END
$$$$