EN62850M
  copyright 2023 drugdesign.org                             0

 31 33  0  0  0  0  0  0  0  0999 V2000
   -0.8607   -5.0106    0.6544 C   0  0
   -0.6701   -4.4983   -0.7097 N   0  0
    0.7329   -4.1652   -0.9470 C   0  0
    0.8476   -2.6899   -0.7167 C   0  0
   -0.3762   -2.1438   -0.7015 C   0  0
   -1.3841   -3.2366   -0.9050 C   0  0
   -0.5795   -0.6986   -0.6833 C   0  0
   -1.8317   -0.1269   -0.9338 C   0  0
   -1.9624    1.2575   -0.9290 C   0  0
   -0.8682    2.0928   -0.6759 C   0  0
   -1.0210    3.4458   -0.6708 O   0  0
    0.3873    1.5214   -0.4177 C   0  0
    1.4474    2.3347   -0.1516 O   0  0
    0.5262    0.1249   -0.4240 C   0  0
    1.8660   -0.5098   -0.1027 C   0  0
    2.0974   -1.8725   -0.7742 C   0  0
   -1.8330   -5.1808    0.8140 H   0  0
   -0.5287   -4.3351    1.3130 H   0  0
   -0.3513   -5.8631    0.7654 H   0  0
    0.9965   -4.3743   -2.0099 H   0  0
    1.4190   -4.7474   -0.2897 H   0  0
   -2.2616   -3.1421   -0.2247 H   0  0
   -1.7459   -3.1803   -1.9579 H   0  0
   -2.7103   -0.7580   -1.1425 H   0  0
   -2.9495    1.7078   -1.1290 H   0  0
   -1.9489    3.6662   -0.8586 H   0  0
    1.1494    3.2596   -0.1718 H   0  0
    2.7122    0.1639   -0.3671 H   0  0
    1.8859   -0.6423    1.0056 H   0  0
    2.3695   -1.7441   -1.8477 H   0  0
    2.9296   -2.4153   -0.2675 H   0  0
  1  2  1  0  0  0
  2  3  1  0  0  0
  2  6  1  0  0  0
  3  4  1  0  0  0
  4  5  2  0  0  0
  4 16  1  0  0  0
  5  6  1  0  0  0
  5  7  1  0  0  0
  7  8  1  0  0  0
  7 14  1  0  0  0
  8  9  1  0  0  0
  9 10  1  0  0  0
 10 11  1  0  0  0
 10 12  1  0  0  0
 12 13  1  0  0  0
 12 14  1  0  0  0
 14 15  1  0  0  0
 15 16  1  0  0  0
  1 17  1  0  0  0
  1 18  1  0  0  0
  1 19  1  0  0  0
  3 20  1  0  0  0
  3 21  1  0  0  0
  6 22  1  0  0  0
  6 23  1  0  0  0
  8 24  1  0  0  0
  9 25  1  0  0  0
 11 26  1  0  0  0
 13 27  1  0  0  0
 15 28  1  0  0  0
 15 29  1  0  0  0
 16 30  1  0  0  0
 16 31  1  0  0  0
M  END
$$$$
DOPAMINEO
  copyright 2023 drugdesign.org                             0

 22 22  0  0  0  0  0  0  0  0999 V2000
   -0.6569   -4.3818   -0.5493 N   0  0
   -0.8112   -2.9359   -0.3485 C   0  0
   -0.3046   -2.1873   -1.5951 C   0  0
   -0.4647   -0.6716   -1.3843 C   0  0
   -1.6560    0.0024   -1.7670 C   0  0
   -1.7826    1.3749   -1.5705 C   0  0
   -0.7589    2.1281   -1.0016 C   0  0
   -0.8982    3.4701   -0.8164 O   0  0
    0.4431    1.4640   -0.6113 C   0  0
    1.4649    2.1651   -0.0501 O   0  0
    0.5545    0.0866   -0.8149 C   0  0
   -1.5250   -4.9048   -0.4043 H   0  0
    0.0274   -4.8062    0.0825 H   0  0
   -1.7747   -2.7213   -0.1995 H   0  0
   -0.2813   -2.6534    0.4484 H   0  0
    0.6598   -2.4040   -1.7441 H   0  0
   -0.8357   -2.4707   -2.3924 H   0  0
   -2.4902   -0.5526   -2.2200 H   0  0
   -2.7147    1.8771   -1.8757 H   0  0
   -1.6850    3.9148   -1.0715 H   0  0
    1.3822    3.0921    0.0823 H   0  0
    1.4909   -0.4060   -0.5096 H   0  0
  1  2  1  0  0  0
  2  3  1  0  0  0
  3  4  1  0  0  0
  4  5  1  0  0  0
  4 11  1  0  0  0
  5  6  1  0  0  0
  6  7  1  0  0  0
  7  8  1  0  0  0
  7  9  1  0  0  0
  9 10  1  0  0  0
  9 11  1  0  0  0
  1 12  1  0  0  0
  1 13  1  0  0  0
  2 14  1  0  0  0
  2 15  1  0  0  0
  3 16  1  0  0  0
  3 17  1  0  0  0
  5 18  1  0  0  0
  6 19  1  0  0  0
  8 20  1  0  0  0
 10 21  1  0  0  0
 11 22  1  0  0  0
M  END
$$$$
