DOPAMINEO
  copyright 2023 drugdesign.org                             0

 22 22  0  0  0  0  0  0  0  0999 V2000
   -0.6569   -4.3818   -0.5493 N   0  0
   -0.8112   -2.9359   -0.3485 C   0  0
   -0.3046   -2.1873   -1.5951 C   0  0
   -0.4647   -0.6716   -1.3843 C   0  0
   -1.6560    0.0024   -1.7670 C   0  0
   -1.7826    1.3749   -1.5705 C   0  0
   -0.7589    2.1281   -1.0016 C   0  0
   -0.8982    3.4701   -0.8164 O   0  0
    0.4431    1.4640   -0.6113 C   0  0
    1.4649    2.1651   -0.0501 O   0  0
    0.5545    0.0866   -0.8149 C   0  0
   -1.5250   -4.9048   -0.4043 H   0  0
    0.0274   -4.8062    0.0825 H   0  0
   -1.7747   -2.7213   -0.1995 H   0  0
   -0.2813   -2.6534    0.4484 H   0  0
    0.6598   -2.4040   -1.7441 H   0  0
   -0.8357   -2.4707   -2.3924 H   0  0
   -2.4902   -0.5526   -2.2200 H   0  0
   -2.7147    1.8771   -1.8757 H   0  0
   -1.6850    3.9148   -1.0715 H   0  0
    1.3822    3.0921    0.0823 H   0  0
    1.4909   -0.4060   -0.5096 H   0  0
  1  2  1  0  0  0
  2  3  1  0  0  0
  3  4  1  0  0  0
  4  5  1  0  0  0
  4 11  1  0  0  0
  5  6  1  0  0  0
  6  7  1  0  0  0
  7  8  1  0  0  0
  7  9  1  0  0  0
  9 10  1  0  0  0
  9 11  1  0  0  0
  1 12  1  0  0  0
  1 13  1  0  0  0
  2 14  1  0  0  0
  2 15  1  0  0  0
  3 16  1  0  0  0
  3 17  1  0  0  0
  5 18  1  0  0  0
  6 19  1  0  0  0
  8 20  1  0  0  0
 10 21  1  0  0  0
 11 22  1  0  0  0
M  END
$$$$
EN62850M
  copyright 2023 drugdesign.org                             0

 31 33  0  0  0  0  0  0  0  0999 V2000
    0.7172   -4.1682    5.4338 C   0  0
    0.9078   -3.6559    4.0697 N   0  0
    2.3108   -3.3228    3.8324 C   0  0
    2.4255   -1.8475    4.0627 C   0  0
    1.2017   -1.3014    4.0779 C   0  0
    0.1938   -2.3942    3.8744 C   0  0
    0.9984    0.1438    4.0961 C   0  0
   -0.2538    0.7155    3.8456 C   0  0
   -0.3845    2.0999    3.8504 C   0  0
    0.7097    2.9352    4.1035 C   0  0
    0.5569    4.2882    4.1086 O   0  0
    1.9652    2.3638    4.3617 C   0  0
    3.0253    3.1771    4.6278 O   0  0
    2.1041    0.9673    4.3554 C   0  0
    3.4439    0.3326    4.6767 C   0  0
    3.6753   -1.0301    4.0052 C   0  0
   -0.2551   -4.3384    5.5934 H   0  0
    1.0492   -3.4927    6.0924 H   0  0
    1.2266   -5.0207    5.5448 H   0  0
    2.5744   -3.5319    2.7695 H   0  0
    2.9969   -3.9050    4.4897 H   0  0
   -0.6837   -2.2997    4.5547 H   0  0
   -0.1680   -2.3379    2.8215 H   0  0
   -1.1324    0.0844    3.6369 H   0  0
   -1.3716    2.5502    3.6504 H   0  0
   -0.3710    4.5086    3.9208 H   0  0
    2.7273    4.1020    4.6076 H   0  0
    4.2901    1.0063    4.4123 H   0  0
    3.4638    0.2001    5.7850 H   0  0
    3.9474   -0.9017    2.9317 H   0  0
    4.5075   -1.5729    4.5119 H   0  0
  1  2  1  0  0  0
  2  3  1  0  0  0
  2  6  1  0  0  0
  3  4  1  0  0  0
  4  5  2  0  0  0
  4 16  1  0  0  0
  5  6  1  0  0  0
  5  7  1  0  0  0
  7  8  1  0  0  0
  7 14  1  0  0  0
  8  9  1  0  0  0
  9 10  1  0  0  0
 10 11  1  0  0  0
 10 12  1  0  0  0
 12 13  1  0  0  0
 12 14  1  0  0  0
 14 15  1  0  0  0
 15 16  1  0  0  0
  1 17  1  0  0  0
  1 18  1  0  0  0
  1 19  1  0  0  0
  3 20  1  0  0  0
  3 21  1  0  0  0
  6 22  1  0  0  0
  6 23  1  0  0  0
  8 24  1  0  0  0
  9 25  1  0  0  0
 11 26  1  0  0  0
 13 27  1  0  0  0
 15 28  1  0  0  0
 15 29  1  0  0  0
 16 30  1  0  0  0
 16 31  1  0  0  0
M  END
$$$$
