DOPAMINEO
  copyright 2023 drugdesign.org                             0

 22 22  0  0  0  0  0  0  0  0999 V2000
   -1.3748   -4.1231   -1.0215 N   0  0
   -1.2634   -2.7404   -0.5414 C   0  0
   -1.0834   -1.7928   -1.7417 C   0  0
   -0.9649   -0.3436   -1.2386 C   0  0
   -2.1151    0.4759   -1.0791 C   0  0
   -1.9888    1.7858   -0.6245 C   0  0
   -0.7468    2.3346   -0.3161 C   0  0
   -0.6401    3.6179    0.1273 O   0  0
    0.4171    1.5225   -0.4705 C   0  0
    1.6480    2.0220   -0.1772 O   0  0
    0.2737    0.2103   -0.9273 C   0  0
   -2.2135   -4.6023   -0.6824 H   0  0
   -0.5884   -4.7135   -0.7377 H   0  0
   -2.0922   -2.4932   -0.0428 H   0  0
   -0.4754   -2.6628    0.0658 H   0  0
   -0.2540   -2.0422   -2.2409 H   0  0
   -1.8727   -1.8712   -2.3490 H   0  0
   -3.1161    0.0840   -1.3108 H   0  0
   -2.8939    2.4036   -0.5093 H   0  0
   -1.4005    4.1592    0.2303 H   0  0
    1.7358    2.9066    0.1286 H   0  0
    1.1841   -0.3984   -1.0423 H   0  0
  1  2  1  0  0  0
  2  3  1  0  0  0
  3  4  1  0  0  0
  4  5  1  0  0  0
  4 11  1  0  0  0
  5  6  1  0  0  0
  6  7  1  0  0  0
  7  8  1  0  0  0
  7  9  1  0  0  0
  9 10  1  0  0  0
  9 11  1  0  0  0
  1 12  1  0  0  0
  1 13  1  0  0  0
  2 14  1  0  0  0
  2 15  1  0  0  0
  3 16  1  0  0  0
  3 17  1  0  0  0
  5 18  1  0  0  0
  6 19  1  0  0  0
  8 20  1  0  0  0
 10 21  1  0  0  0
 11 22  1  0  0  0
M  END
$$$$
AL157656
  copyright 2023 drugdesign.org                             0

 33 35  0  0  0  0  0  0  0  0999 V2000
   -1.8008   -5.0394   -0.0683 C   0  0
   -1.4645   -4.1715   -1.2056 N   0  0
    0.0135   -4.0618   -1.3826 C   0  0
    0.3817   -2.6382   -0.9573 C   0  0
    1.6417   -1.9993   -1.5301 C   0  0
    1.7630   -0.5819   -0.9472 C   0  0
    0.4536    0.1771   -0.7912 C   0  0
   -0.8105   -0.4509   -1.0328 C   0  0
   -1.9867    0.2838   -0.8666 C   0  0
   -1.9280    1.6166   -0.4658 C   0  0
   -0.6780    2.2581   -0.2195 C   0  0
   -0.6301    3.5608    0.1742 O   0  0
    0.5074    1.5234   -0.3862 C   0  0
    1.7042    2.1315   -0.1485 O   0  0
   -0.8604   -1.8842   -1.4772 C   0  0
   -1.9740   -2.8122   -0.9852 C   0  0
   -2.7938   -5.0786    0.0373 H   0  0
   -1.3907   -4.6730    0.7659 H   0  0
   -1.4477   -5.9604   -0.2363 H   0  0
    0.5492   -4.8380   -0.7879 H   0  0
    0.2525   -4.2153   -2.4613 H   0  0
    0.4220   -2.6006    0.1596 H   0  0
    1.5678   -1.9549   -2.6401 H   0  0
    2.5420   -2.6095   -1.2840 H   0  0
    2.4706    0.0063   -1.5762 H   0  0
    2.2086   -0.6577    0.0712 H   0  0
   -2.9665   -0.1839   -1.0548 H   0  0
   -2.8638    2.1852   -0.3382 H   0  0
   -1.4210    4.0589    0.2877 H   0  0
    1.7304    3.0313    0.1257 H   0  0
   -0.8733   -1.8756   -2.5942 H   0  0
   -2.9403   -2.6629   -1.5211 H   0  0
   -2.1439   -2.6576    0.1049 H   0  0
  1  2  1  0  0  0
  2  3  1  0  0  0
  2 16  1  0  0  0
  3  4  1  0  0  0
  4  5  1  0  0  0
  4 15  1  0  0  0
  5  6  1  0  0  0
  6  7  1  0  0  0
  7  8  1  0  0  0
  7 13  1  0  0  0
  8  9  1  0  0  0
  8 15  1  0  0  0
  9 10  1  0  0  0
 10 11  1  0  0  0
 11 12  1  0  0  0
 11 13  1  0  0  0
 13 14  1  0  0  0
 15 16  1  0  0  0
  1 17  1  0  0  0
  1 18  1  0  0  0
  1 19  1  0  0  0
  3 20  1  0  0  0
  3 21  1  0  0  0
  4 22  1  0  0  0
  5 23  1  0  0  0
  5 24  1  0  0  0
  6 25  1  0  0  0
  6 26  1  0  0  0
  9 27  1  0  0  0
 10 28  1  0  0  0
 12 29  1  0  0  0
 14 30  1  0  0  0
 15 31  1  0  0  0
 16 32  1  0  0  0
 16 33  1  0  0  0
M  END
$$$$
