DOPAMINEO
  copyright 2023 drugdesign.org                             0

 11 11  0  0  0  0  0  0  0  0999 V2000
   -9.3829   -6.2701   -0.5773 N   0  0
   -8.1729   -6.5929   -1.3432 C   0  0
   -8.0917   -5.6832   -2.5829 C   0  0
   -8.0386   -4.2115   -2.1372 C   0  0
   -9.2274   -3.4524   -1.9630 C   0  0
   -9.1602   -2.1211   -1.5611 C   0  0
   -7.9414   -1.4920   -1.3209 C   0  0
   -7.8926   -0.1888   -0.9285 O   0  0
   -6.7391   -2.2428   -1.4908 C   0  0
   -5.5291   -1.6641   -1.2636 O   0  0
   -6.8233   -3.5774   -1.8943 C   0  0
  1  2  1  0  0  0
  2  3  1  0  0  0
  3  4  1  0  0  0
  4  5  1  0  0  0
  4 11  1  0  0  0
  5  6  1  0  0  0
  6  7  1  0  0  0
  7  8  1  0  0  0
  7  9  1  0  0  0
  9 10  1  0  0  0
  9 11  1  0  0  0
M  END
$$$$
Str4
  copyright 2023 drugdesign.org                             0

 13 14  0  0  0  0  0  0  0  0999 V2000
   -8.9682   -3.8107   -1.8116 C   0  0
   -9.0432   -2.4603   -1.4505 C   0  0
   -7.8703   -1.7177   -1.2698 C   0  0
   -7.9437   -0.3962   -0.9164 O   0  0
   -6.6221   -2.3257   -1.4503 C   0  0
   -5.4743   -1.5990   -1.2733 O   0  0
   -6.5471   -3.6761   -1.8113 C   0  0
   -7.7201   -4.4186   -1.9920 C   0  0
   -7.6391   -5.8753   -2.3815 C   0  0  2  0  0  0
   -8.5036   -6.2628   -3.5955 C   0  0
   -9.1600   -7.3772   -2.7596 C   0  0
   -8.4728   -6.8219   -1.4984 C   0  0  2  0  0  0
   -9.3866   -6.1278   -0.5795 N   0  0
  1  2  1  0  0  0
  8  1  1  0  0  0
  2  3  1  0  0  0
  3  4  1  0  0  0
  5  3  1  0  0  0
  5  6  1  0  0  0
  7  5  1  0  0  0
  8  7  1  0  0  0
  9  8  1  0  0  0
  9 10  1  0  0  0
 12  9  1  0  0  0
 11 10  1  0  0  0
 12 11  1  0  0  0
 12 13  1  0  0  0
M  END
$$$$
