Pyrrole
  DSViewer          3D                             0

  6  6  0  0  0  0  0  0  0  0999 V2000
   -3.8606    1.6760   -0.0137 N   0  0
   -2.7867    0.7960    0.0143 C   0  0
   -3.2973   -0.4334    0.0666 C   0  0
   -4.7646   -0.3112    0.0714 C   0  0
   -5.0651    0.9858    0.0216 C   0  0
   -3.7777    2.6717   -0.0538 H   0  0
  1  2  1  0  0  0
  2  3  2  0  0  0
  3  4  1  0  0  0
  4  5  2  0  0  0
  5  1  1  0  0  0
  1  6  1  0  0  0
M  END
$$$$
Thiophene
  DSViewer          3D                             0

  5  5  0  0  0  0  0  0  0  0999 V2000
   -3.3863    1.9028   -0.0876 S   0  0
   -2.5919    0.3500    0.0076 C   0  0
   -3.5042   -0.6215    0.0981 C   0  0
   -4.9118   -0.1125    0.0920 C   0  0
   -4.9909    1.2176   -0.0028 C   0  0
  1  2  1  0  0  0
  2  3  2  0  0  0
  3  4  1  0  0  0
  4  5  2  0  0  0
  5  1  1  0  0  0
M  END
$$$$
Ph
  DSViewer          3D                             0

  6  6  0  0  0  0  0  0  0  0999 V2000
   -4.7716    1.7656    0.1233 C   0  0
   -3.2400    1.9247    0.0979 C   0  0
   -2.3387    0.6821   -0.0254 C   0  0
   -2.9690   -0.7196   -0.1233 C   0  0
   -4.5006   -0.8787   -0.0979 C   0  0
   -5.4018    0.3639    0.0254 C   0  0
  1  2  4  0  0  0
  2  3  4  0  0  0
  3  4  4  0  0  0
  4  5  4  0  0  0
  5  6  4  0  0  0
  6  1  4  0  0  0
M  END
$$$$
Pyridine
  DSViewer          3D                             0

  6  6  0  0  0  0  0  0  0  0999 V2000
   -3.8703    2.0630    0.0000 N   0  0
   -2.5366    1.2930    0.0000 C   0  0
   -2.5366   -0.2470    0.0000 C   0  0
   -3.8703   -1.0170    0.0000 C   0  0
   -5.2040   -0.2470    0.0000 C   0  0
   -5.2040    1.2930    0.0000 C   0  0
  1  2  4  0  0  0
  2  3  4  0  0  0
  3  4  4  0  0  0
  4  5  4  0  0  0
  5  6  4  0  0  0
  6  1  4  0  0  0
M  END
$$$$
Isoxazole
  DSViewer          3D                             0

  5  5  0  0  0  0  0  0  0  0999 V2000
   -4.6830    1.3829    0.1010 O   0  0
   -3.3194    1.4956    0.0819 N   0  0
   -2.7331    0.3710   -0.0122 C   0  0
   -3.7285   -0.6406   -0.0663 C   0  0
   -4.8907   -0.0144    0.0029 C   0  0
  1  2  1  0  0  0
  2  3  2  0  0  0
  3  4  1  0  0  0
  4  5  2  0  0  0
  5  1  1  0  0  0
M  END
$$$$
Furan
  DSViewer          3D                             0

  5  5  0  0  0  0  0  0  0  0999 V2000
   -3.4821   -0.6006   -0.0730 O   0  0
   -4.7762   -0.1324    0.2820 C   0  0
   -4.8274    1.1941    0.2779 C   0  0
   -3.5351    1.6690   -0.0897 C   0  0
   -2.7645    0.6067   -0.2902 C   0  0
  1  2  1  0  0  0
  2  3  2  0  0  0
  3  4  1  0  0  0
  4  5  2  0  0  0
  5  1  1  0  0  0
M  END
$$$$
Imidazole
  DSViewer          3D                             0

  6  6  0  0  0  0  0  0  0  0999 V2000
   -4.1139    1.6606    0.0211 N   0  0
   -2.8317    1.1272    0.0211 C   0  0
   -2.9659   -0.1982    0.0216 N   0  0
   -4.4060   -0.5045    0.0217 C   0  0
   -5.0680    0.6516    0.0213 C   0  0
   -4.3219    2.6387    0.0209 H   0  0
  1  2  1  0  0  0
  2  3  2  0  0  0
  3  4  1  0  0  0
  4  5  2  0  0  0
  5  1  1  0  0  0
  1  6  1  0  0  0
M  END
$$$$
centroid
  DSViewer          3D                             0

  1  0  0  0  0  0  0  0  0  0999 V2000
   -3.9012    0.4949    0.0049 C   0  0
M  END
$$$$
