FEFZIZ
  DSViewer          3D                             0

 51 54  0  0  0  0  0  0  0  0999 V2000
    3.6030    6.9370    4.3500 Br  0  0
    6.4580    7.0870    5.7420 C   0  0
    5.9140    7.5720    7.1510 C   0  0
    6.0360    9.0750    7.2400 C   0  0  1  0  0  0
    7.2680    9.6740    7.4430 C   0  0
    7.5680   10.9280    6.9000 C   0  0
    6.5960   11.5600    6.1210 C   0  0  2  0  0  0
    5.3060   11.0970    6.1710 C   0  0
    5.0200    9.8690    6.7250 C   0  0
    7.0100   12.4720    4.9790 C   0  0
    7.5720   11.5740    3.8020 C   0  0
    6.7850   10.2930    3.6540 C   0  0  2  0  0  0
    5.5720   10.2680    2.9120 C   0  0  2  0  0  0
    4.6920    9.2060    3.0910 C   0  0
    4.9860    8.2260    4.0050 C   0  0  2  0  0  0
    6.2100    8.1210    4.6420 C   0  0  1  0  0  0
    7.1640    9.1160    4.3470 C   0  0  1  0  0  0
    8.6410    8.8770    4.6830 C   0  0
    9.3570    8.0240    3.5950 C   0  0
    8.8310    8.4380    2.2330 C   0  0  1  0  0  0
    7.7150    7.7780    1.7020 C   0  0
    6.8160    8.4300    0.8790 C   0  0
    6.9960    9.7730    0.5990 C   0  0  2  0  0  0
    8.2420   10.3380    0.8670 C   0  0
    9.1500    9.6740    1.6790 C   0  0
    5.7790   10.6520    0.3640 C   0  0
    5.3040   11.2560    1.7630 C   0  0
    5.9240    6.3290    5.5760 H   0  0
    7.4750    6.8240    5.7580 H   0  0
    6.4460    6.9440    7.8910 H   0  0
    5.0980    7.1240    7.2410 H   0  0
    8.2130    9.1190    7.8200 H   0  0
    8.7590   11.3830    6.8860 H   0  0
    4.5260   11.6080    5.8300 H   0  0
    4.0430    9.5240    6.6730 H   0  0
    7.6410   13.0930    5.2810 H   0  0
    6.0390   13.0480    4.6010 H   0  0
    7.4500   12.2230    3.2200 H   0  0
    8.5810   11.4890    3.9410 H   0  0
    3.9160    9.3140    2.7420 H   0  0
    8.5560    8.0690    5.4340 H   0  0
    9.1410    9.7940    4.8040 H   0  0
   10.4760    8.2790    3.7780 H   0  0
    9.0640    7.1240    3.8190 H   0  0
    9.9160   10.3490    1.7980 H   0  0
    8.4920   11.2330    0.6200 H   0  0
    5.9880    7.9190    0.6600 H   0  0
    7.3610    6.9440    2.0310 H   0  0
    5.0090   10.3490    0.2130 H   0  0
    4.0940   11.4140    1.7770 H   0  0
    5.5810   12.1930    2.1330 H   0  0
  1 15  1  0  0  0
  4  3  1  0  0  0
  4  5  1  0  0  0
  4  9  1  0  0  0
  5  6  1  0  0  0
  5 32  1  0  0  0
  6  7  1  0  0  0
  7  8  1  0  0  0
  7 10  1  0  0  0
  8  9  1  0  0  0
  8 34  1  0  0  0
  9 35  1  0  0  0
 12 11  1  0  0  0
 12 13  1  0  0  0
 12 17  1  0  0  0
 13 14  1  0  0  0
 13 27  1  0  0  0
 14 15  1  0  0  0
 14 40  1  0  0  0
 15 16  1  0  0  0
 16  2  1  0  0  0
 16 17  1  0  0  0
 17 18  1  0  0  0
 20 19  1  0  0  0
 20 21  1  0  0  0
 20 25  1  0  0  0
 21 22  1  0  0  0
 21 48  1  0  0  0
 22 23  1  0  0  0
 22 47  1  0  0  0
 23 24  1  0  0  0
 23 26  1  0  0  0
 24 46  1  0  0  0
 24 25  1  0  0  0
 25 45  1  0  0  0
 28  2  1  0  0  0
 29  2  1  0  0  0
 30  3  1  0  0  0
 31  3  1  0  0  0
 36 10  1  0  0  0
 37 10  1  0  0  0
 38 11  1  0  0  0
 39 11  1  0  0  0
 41 18  1  0  0  0
 42 18  1  0  0  0
 43 19  1  0  0  0
 44 19  1  0  0  0
 49 26  1  0  0  0
 50 27  1  0  0  0
 51 27  1  0  0  0
  2  3  1  0  0  0
 10 11  1  0  0  0
 18 19  1  0  0  0
 26 27  1  0  0  0
M  END
$$$$
77
  DSViewer          3D                             0

 42 46  0  0  0  0  0  0  0  0999 V2000
    3.6650    6.7410    4.1880 Br  0  0
    6.3450    6.9910    5.6720 C   0  0
    5.9920    7.5670    7.0760 C   0  0
    6.1920    9.0420    6.8990 C   0  0  1  0  0  0
    7.4130    9.6460    7.1990 C   0  0
    7.7090   10.8990    6.6810 C   0  0
    6.7790   11.5330    5.8680 C   0  0  2  0  0  0
    5.4590   11.1050    5.8950 C   0  0
    5.1650    9.8520    6.4110 C   0  0
    7.2570   12.3990    4.7320 C   0  0
    7.6400   11.4110    3.6040 C   0  0
    6.7380   10.2020    3.6800 C   0  0  1  0  0  0
    5.5830   10.1830    2.9080 C   0  0  2  0  0  0
    4.6840    9.1410    3.0540 C   0  0
    4.9360    8.1200    3.9490 C   0  0
    6.1180    8.1040    4.6720 C   0  0  2  0  0  0
    7.0620    9.0910    4.4450 C   0  0  1  0  0  0
    8.4670    8.8740    4.9740 C   0  0
    9.2990    8.1970    3.8500 C   0  0
    8.6240    8.6550    2.5950 C   0  0  1  0  0  0
    7.5810    7.9220    2.0290 C   0  0
    6.7330    8.5220    1.1100 C   0  0
    6.9340    9.8530    0.7740 C   0  0  2  0  0  0
    8.1630   10.4390    1.0460 C   0  0
    9.0110    9.8370    1.9630 C   0  0
    5.7460   10.7360    0.4870 C   0  0
    5.2970   11.2520    1.8770 C   0  0
    7.3880    6.6770    5.6500 H   0  0
    5.6960    6.1460    5.4430 H   0  0
    4.9560    7.3470    7.3340 H   0  0
    6.6690    7.1750    7.8350 H   0  0
    8.1260    9.1410    7.8330 H   0  0
    8.6520   11.3750    6.9070 H   0  0
    4.6710   11.7400    5.5180 H   0  0
    4.1430    9.5030    6.4350 H   0  0
    6.4580   13.0620    4.4000 H   0  0
    8.1270   12.9790    5.0390 H   0  0
    7.5160   11.8970    2.6360 H   0  0
    8.6770   11.1000    3.7270 H   0  0
    3.7790    9.1270    2.4650 H   0  0
    8.9140    9.8330    5.2380 H   0  0
    8.4350    8.2270    5.8500 H   0  0
  1 15  1  0  0  0
  4  3  1  0  0  0
  4  5  1  0  0  0
  4  9  1  0  0  0
  5  6  1  0  0  0
  5 32  1  0  0  0
  6  7  1  0  0  0
  6 33  1  0  0  0
  7  8  1  0  0  0
  7 10  1  0  0  0
  8  9  1  0  0  0
  8 34  1  0  0  0
  9 35  1  0  0  0
 12 11  1  0  0  0
 12 13  1  0  0  0
 12 17  1  0  0  0
 13 14  1  0  0  0
 13 27  1  0  0  0
 14 15  1  0  0  0
 14 40  1  0  0  0
 15 16  1  0  0  0
 16  2  1  0  0  0
 16 17  1  0  0  0
 17 18  1  0  0  0
 20 19  1  0  0  0
 20 21  1  0  0  0
 20 25  1  0  0  0
 21 22  1  0  0  0
 22 23  1  0  0  0
 23 24  1  0  0  0
 23 26  1  0  0  0
 24 25  1  0  0  0
 28  2  1  0  0  0
 29  2  1  0  0  0
 30  3  1  0  0  0
 31  3  1  0  0  0
 36 10  1  0  0  0
 37 10  1  0  0  0
 38 11  1  0  0  0
 39 11  1  0  0  0
 41 18  1  0  0  0
 42 18  1  0  0  0
  2  3  1  0  0  0
 10 11  1  0  0  0
 18 19  1  0  0  0
 26 27  1  0  0  0
M  END
$$$$
