mol1
  copyright 2023 drugdesign.org                             0

 25 30  0  0  0  0  0  0  0  0999 V2000
    9.2466   10.3576    2.5935 N   0  0
    7.9403   10.3244    3.1465 C   0  0
    7.4867   10.2791    4.4023 C   0  0
    6.0933   10.2200    4.7127 C   0  0
    5.2085   10.2409    3.5355 C   0  0
    5.6597   10.2867    2.3091 C   0  0
    7.0418   10.3175    2.0112 C   0  0
    7.8160   10.3730    0.8306 C   0  0
    9.1980   10.3893    1.1918 C   0  0
   10.1554   10.4254    0.2256 C   0  0
    9.8025   10.4571   -1.0907 C   0  0
    8.4324   10.4307   -1.4881 C   0  0
    7.4769   10.3799   -0.5014 C   0  0
    4.4950   10.2585    1.3017 C   0  0
    3.3961   10.2001    2.2434 N   0  0
    3.7121   10.1727    3.5460 C   0  0
    2.9589   10.1184    4.4989 O   0  0
    5.9438   10.1327    6.1100 C   0  0
    7.2583   10.1405    6.6581 C   0  0
    7.5031   10.1212    8.0334 C   0  0
    6.4110   10.0627    8.8685 C   0  0
    5.1006   10.0417    8.3363 C   0  0
    4.8860   10.0945    6.9908 C   0  0
    8.1534   10.1909    5.6466 N   0  0
    2.4343   10.1808    1.9325 H   0  0
  1  2  1  0  0  0
  1  9  1  0  0  0
  2  3  1  0  0  0
  2  7  2  0  0  0
  3  4  2  0  0  0
  3 24  1  0  0  0
  4  5  1  0  0  0
  4 18  1  0  0  0
  5  6  2  0  0  0
  5 16  1  0  0  0
  6  7  1  0  0  0
  6 14  1  0  0  0
  7  8  1  0  0  0
  8  9  2  0  0  0
  8 13  1  0  0  0
  9 10  1  0  0  0
 10 11  2  0  0  0
 11 12  1  0  0  0
 12 13  2  0  0  0
 14 15  1  0  0  0
 15 16  1  0  0  0
 15 25  1  0  0  0
 16 17  2  0  0  0
 18 19  2  0  0  0
 18 23  1  0  0  0
 19 20  1  0  0  0
 19 24  1  0  0  0
 20 21  2  0  0  0
 21 22  1  0  0  0
 22 23  2  0  0  0
M  END
$$$$
mol2
  copyright 2023 drugdesign.org                             0

 10 11  0  0  0  0  0  0  0  0999 V2000
    6.7489   10.0448    6.0559 N   0  0
    5.1627   10.8393    1.1022 C   0  0
    4.7910   10.5511    2.5343 N   0  0
    5.6284   10.4301    3.6640 C   0  0
    6.9885   10.5593    3.7099 N   0  0
    7.4834   10.3601    4.9219 C   0  0
    5.3681    9.9083    6.0273 C   0  0
    4.7479   10.1208    4.7222 C   0  0
    3.4516   10.0671    4.3156 N   0  0
    3.4865   10.3191    3.0098 C   0  0
  1  6  1  0  0  0
  1  7  2  0  0  0
  2  3  1  0  0  0
  3  4  1  0  0  0
  3 10  1  0  0  0
  4  5  1  0  0  0
  4  8  2  0  0  0
  5  6  2  0  0  0
  7  8  1  0  0  0
  8  9  1  0  0  0
  9 10  2  0  0  0
M  END
$$$$
mol3
  copyright 2023 drugdesign.org                             0

 20 22  0  0  0  0  0  0  0  0999 V2000
    4.4792    9.8537    2.6790 N   0  0
    3.2430    9.8898    3.3044 C   0  0
    3.1248    9.8262    4.6896 N   0  0
    4.2688    9.6834    5.5361 C   0  0
    5.6728    9.5985    4.8868 C   0  0
    5.7282    9.7546    3.3982 C   0  0
    4.1244    9.6235    6.9958 C   0  0
    5.3048    9.4852    7.8752 C   0  0
    6.6703    9.3125    7.2590 C   0  0
    6.8285    9.3653    5.7683 C   0  0
    6.9523    9.7893    2.6836 N   0  0
    7.3439    9.8993    1.3393 C   0  0
    8.8085    9.8850    1.1182 C   0  0
    9.3719   10.0166   -0.2426 C   0  0
    8.4814   10.0860   -1.4074 C   0  0
    7.0188   10.1016   -1.2202 C   0  0
    6.4528   10.0373    0.1387 C   0  0
    5.2459    9.5389    9.2910 O   0  0
    7.7661    9.1506    8.1603 O   0  0
    7.7492    9.7158    3.3014 H   0  0
  1  2  1  0  0  0
  1  6  2  0  0  0
  2  3  2  0  0  0
  3  4  1  0  0  0
  4  5  2  0  0  0
  4  7  1  0  0  0
  5  6  1  0  0  0
  5 10  1  0  0  0
  6 11  1  0  0  0
  7  8  2  0  0  0
  8  9  1  0  0  0
  8 18  1  0  0  0
  9 10  2  0  0  0
  9 19  1  0  0  0
 11 12  1  0  0  0
 11 20  1  0  0  0
 12 13  2  0  0  0
 12 17  1  0  0  0
 13 14  1  0  0  0
 14 15  2  0  0  0
 15 16  1  0  0  0
 16 17  2  0  0  0
M  END
$$$$
mol4
  copyright 2023 drugdesign.org                             0

 19 20  0  0  0  0  0  0  0  0999 V2000
    6.6188    9.0537    7.8998 ?   0  0
    2.6817   10.6172    4.6240 O   0  0
    8.1759   10.8671   -0.2217 O   0  0
    4.9684    9.7580    5.7883 N   0  0
    3.4735   10.2896    2.5003 N   0  0
   10.0375   10.1203    0.9040 N   0  0
    9.1494    9.8501    2.9485 N   0  0
    6.2361    9.5844    6.1680 C   0  0
    7.0980    9.8390    5.1419 C   0  0
    6.2941   10.1896    4.0241 C   0  0
    4.9445   10.1292    4.4900 C   0  0
    3.6313   10.3599    3.8724 C   0  0
    4.4919    9.9992    1.4766 C   0  0
    5.6988   10.9172    1.5483 C   0  0
    6.7387   10.4583    2.5666 C   0  0  2  0  0  0
    8.0667   10.2772    2.1653 C   0  0
    8.7312   10.4664    0.8130 C   0  0
    4.1567    9.6319    6.3778 H   0  0
    2.5385   10.4596    2.1553 H   0  0
  1  8  1  0  0  0
  2 12  2  0  0  0
  3 17  2  0  0  0
  4  8  1  0  0  0
  4 11  1  0  0  0
  4 18  1  0  0  0
  5 12  1  0  0  0
  5 13  1  0  0  0
  5 19  1  0  0  0
  6 17  1  0  0  0
  7 16  2  0  0  0
  8  9  2  0  0  0
  9 10  1  0  0  0
 10 11  2  0  0  0
 10 15  1  0  0  0
 11 12  1  0  0  0
 13 14  1  0  0  0
 14 15  1  0  0  0
 15 16  1  0  0  0
 16 17  1  0  0  0
M  END
$$$$
mol5
  copyright 2023 drugdesign.org                             0

 15 16  0  0  0  0  0  0  0  0999 V2000
    5.5500   10.2124    5.8400 N   0  0
    4.2439   10.0945    6.0455 C   0  0
    3.4156   10.1323    4.9845 N   0  0
    3.8724   10.2680    3.7456 C   0  0
    5.2109   10.4148    3.5548 C   0  0
    6.0895   10.4000    4.6352 C   0  0
    7.4504   10.5300    4.3628 O   0  0
    8.1979   10.0008    5.4980 C   0  0
    5.2998   10.5231    2.2359 N   0  0
    4.1069   10.5092    1.5506 C   0  0
    3.2472   10.2963    2.5736 N   0  0
    3.5497    9.8585    7.1872 N   0  0
    2.2501   10.1736    2.4599 H   0  0
    4.0964    9.7518    8.0309 H   0  0
    2.5408    9.7929    7.1938 H   0  0
  1  2  1  0  0  0
  1  6  2  0  0  0
  2  3  2  0  0  0
  2 12  1  0  0  0
  3  4  1  0  0  0
  4  5  2  0  0  0
  4 11  1  0  0  0
  5  6  1  0  0  0
  5  9  1  0  0  0
  6  7  1  0  0  0
  7  8  1  0  0  0
  9 10  2  0  0  0
 10 11  1  0  0  0
 11 13  1  0  0  0
 12 14  1  0  0  0
 12 15  1  0  0  0
M  END
$$$$
mol6
  copyright 2023 drugdesign.org                             0

 18 18  0  0  0  0  0  0  0  0999 V2000
    5.2868   10.3833    5.9383 N   0  0
    5.9984   10.2122    4.7924 C   0  0
    7.3908   10.2402    4.8932 O   0  0
    7.9061   10.1852    6.2513 C   0  0
    5.3191    9.9858    3.4803 C   0  0
    6.2058    9.7884    2.3494 N   0  0
    5.6916    9.6100    1.2329 O   0  0
    3.9862    9.9439    3.4975 C   0  0
    3.2833    9.7332    2.4231 N   0  0
    3.3286   10.1600    4.7942 N   0  0
    3.8955   10.3364    5.9080 C   0  0
    3.2735   10.4923    7.0492 N   0  0
    7.2100    9.7959    2.4661 H   0  0
    4.9241    9.1311    1.5885 H   0  0
    3.7707    9.5972    1.5478 H   0  0
    2.2734    9.7060    2.4626 H   0  0
    3.8147   10.6375    7.8907 H   0  0
    2.2636   10.4677    7.0887 H   0  0
  1  2  2  0  0  0
  1 11  1  0  0  0
  2  3  1  0  0  0
  2  5  1  0  0  0
  3  4  1  0  0  0
  5  6  1  0  0  0
  5  8  2  0  0  0
  6  7  1  0  0  0
  6 13  1  0  0  0
  7 14  1  0  0  0
  8  9  1  0  0  0
  8 10  1  0  0  0
  9 15  1  0  0  0
  9 16  1  0  0  0
 10 11  2  0  0  0
 11 12  1  0  0  0
 12 17  1  0  0  0
 12 18  1  0  0  0
M  END
$$$$
mol7
  copyright 2023 drugdesign.org                             0

 22 25  0  0  0  0  0  0  0  0999 V2000
    5.8683    8.9184    7.3459 C   0  0
    7.1583    8.4779    7.0039 C   0  0
    8.1129    8.0944    7.9867 C   0  0
    7.7140    8.1776    9.3544 C   0  0
    6.3978    8.6300    9.7088 C   0  0
    5.4549    9.0092    8.7021 C   0  0
    7.1540    8.5444    5.5054 C   0  0
    8.0933    8.2374    4.8014 O   0  0
    5.8103    9.0220    5.1179 C   0  0
    5.2189    9.2752    3.9143 C   0  0
    3.8290    9.7589    3.7453 C   0  0
    3.0659   10.0085    4.6783 O   0  0
    3.5605    9.8764    2.4799 N   0  0
    5.1619    9.2175    6.2488 N   0  0
    5.7043    9.1270    2.4732 C   0  0
    6.9026    8.7182    1.8190 C   0  0
    6.9384    8.7177    0.3868 C   0  0
    5.8037    9.1176   -0.3683 C   0  0
    4.6142    9.5315    0.2907 C   0  0
    4.5915    9.5252    1.7076 C   0  0
    2.6717   10.1973    2.1205 H   0  0
    4.2126    9.5635    6.2845 H   0  0
  1  2  2  0  0  0
  1  6  1  0  0  0
  1 14  1  0  0  0
  2  3  1  0  0  0
  2  7  1  0  0  0
  3  4  2  0  0  0
  4  5  1  0  0  0
  5  6  2  0  0  0
  7  8  2  0  0  0
  7  9  1  0  0  0
  9 10  2  0  0  0
  9 14  1  0  0  0
 10 11  1  0  0  0
 10 15  1  0  0  0
 11 12  2  0  0  0
 11 13  1  0  0  0
 13 20  1  0  0  0
 13 21  1  0  0  0
 14 22  1  0  0  0
 15 16  1  0  0  0
 15 20  2  0  0  0
 16 17  2  0  0  0
 17 18  1  0  0  0
 18 19  2  0  0  0
 19 20  1  0  0  0
M  END
$$$$
mol8
  copyright 2023 drugdesign.org                             0

 13 14  0  0  0  0  0  0  0  0999 V2000
    8.4575   10.4627    5.6111 C   0  0
    7.3219   10.3616    4.7006 N   0  0
    7.4312   10.1423    3.3543 C   0  0
    6.2716    9.9853    2.7368 N   0  0
    5.3343   10.0580    3.7640 C   0  0
    3.9213    9.9788    3.7526 C   0  0
    3.2295    9.7868    2.6194 N   0  0
    3.2873   10.0854    4.9510 N   0  0
    4.0229   10.2649    6.0647 C   0  0
    5.3519   10.3524    6.1966 N   0  0
    5.9665   10.2492    4.9945 C   0  0
    3.7390    9.6968    1.7508 H   0  0
    2.2200    9.7332    2.6336 H   0  0
  1  2  1  0  0  0
  2  3  1  0  0  0
  2 11  1  0  0  0
  3  4  2  0  0  0
  4  5  1  0  0  0
  5  6  1  0  0  0
  5 11  2  0  0  0
  6  7  1  0  0  0
  6  8  2  0  0  0
  7 12  1  0  0  0
  7 13  1  0  0  0
  8  9  1  0  0  0
  9 10  2  0  0  0
 10 11  1  0  0  0
M  END
$$$$
mol9
  copyright 2023 drugdesign.org                             0

 22 24  0  0  0  0  0  0  0  0999 V2000
    3.4574   10.1929    2.2222 N   0  0
    3.6994   10.2211    3.5640 C   0  0
    5.1624   10.2588    3.7943 C   0  0
    7.1344   10.3847    2.0621 C   0  0
    7.3894   10.4314    0.5969 C   0  0
    6.2823   10.3850   -0.3960 C   0  0
    4.8982   10.2730    0.0999 C   0  0
    4.6306   10.2661    1.5518 C   0  0
    5.7287   10.3144    2.4939 C   0  0
    2.8992   10.2295    4.4957 O   0  0
    5.8290   10.2747    5.0847 N   0  0
    9.6034   10.4924   -0.2044 Br  0  0
    5.3981    9.6628    6.0737 N   0  0
    6.0769    9.4177    7.2210 C   0  0
    5.2849    9.5079    8.4598 C   0  0
    5.9038    9.1549    9.7434 C   0  0
    7.3314    8.7494    9.7993 C   0  0
    8.1426    8.6692    8.5586 C   0  0
    7.5221    9.0052    7.2799 C   0  0
    7.2825    8.7504    9.8249 C   0  0
    2.5436   10.1275    1.7947 H   0  0
    4.4508    9.3138    6.0189 H   0  0
  1  2  1  0  0  0
  1  8  1  0  0  0
  1 21  1  0  0  0
  2  3  1  0  0  0
  2 10  2  0  0  0
  3  9  1  0  0  0
  3 11  2  0  0  0
  4  5  1  0  0  0
  4  9  2  0  0  0
  5  6  2  0  0  0
  5 12  1  0  0  0
  6  7  1  0  0  0
  7  8  2  0  0  0
  8  9  1  0  0  0
 11 13  1  0  0  0
 13 14  1  0  0  0
 13 22  1  0  0  0
 14 15  1  0  0  0
 14 19  2  0  0  0
 15 16  2  0  0  0
 16 17  1  0  0  0
 17 18  2  0  0  0
 17 20  1  0  0  0
 18 19  1  0  0  0
M  END
$$$$
