AA51795M
  DSViewer          3D                             0

 27 28  0  0  0  0  0  0  0  0999 V2000
   -0.6350   -4.5526   -0.3697 N   0  0
   -0.9364   -3.1352   -0.1284 C   0  0
   -0.2568   -2.2307   -1.1634 C   0  0  2  0  0  0
    1.1317   -2.5252   -1.1183 O   0  0
    1.8978   -1.6022   -1.8641 C   0  0
    1.8828   -0.2601   -1.1468 C   0  0
    0.4634    0.1927   -0.9229 C   0  0
    0.1988    1.5549   -0.7108 C   0  0
    1.2070    2.4726   -0.6816 O   0  0
   -1.1236    1.9811   -0.5280 C   0  0
   -1.4047    3.2971   -0.3237 O   0  0
   -2.1478    1.0322   -0.5740 C   0  0
   -1.8770   -0.3176   -0.7823 C   0  0
   -0.5599   -0.7586   -0.9450 C   0  0
   -1.0336   -5.1426    0.3539 H   0  0
    0.3631   -4.7354   -0.3422 H   0  0
   -2.0440   -3.0262   -0.1492 H   0  0
   -0.5870   -2.8639    0.8942 H   0  0
   -0.6296   -2.5034   -2.1799 H   0  0
    2.9395   -1.9967   -1.9233 H   0  0
    1.4985   -1.5325   -2.9033 H   0  0
    2.3875   -0.3421   -0.1559 H   0  0
    2.4454    0.4809   -1.7614 H   0  0
    0.8294    3.3509   -0.5145 H   0  0
   -2.3659    3.4116   -0.2392 H   0  0
   -3.1923    1.3616   -0.4463 H   0  0
   -2.7201   -1.0239   -0.8254 H   0  0
  1  2  1  0  0  0
  2  3  1  0  0  0
  3  4  1  0  0  0
  3 14  1  0  0  0
  4  5  1  0  0  0
  5  6  1  0  0  0
  6  7  1  0  0  0
  7  8  1  0  0  0
  7 14  1  0  0  0
  8  9  1  0  0  0
  8 10  1  0  0  0
 10 11  1  0  0  0
 10 12  1  0  0  0
 12 13  1  0  0  0
 13 14  1  0  0  0
  1 15  1  0  0  0
  1 16  1  0  0  0
  2 17  1  0  0  0
  2 18  1  0  0  0
  3 19  1  0  0  0
  5 20  1  0  0  0
  5 21  1  0  0  0
  6 22  1  0  0  0
  6 23  1  0  0  0
  9 24  1  0  0  0
 11 25  1  0  0  0
 12 26  1  0  0  0
 13 27  1  0  0  0
M  END
$$$$
DOPAMINEO
  DSViewer          3D                             0

 22 22  0  0  0  0  0  0  0  0999 V2000
   -0.5458   -4.4254   -0.2275 N   0  0
   -0.7067   -2.9832   -0.0060 C   0  0
   -0.7051   -2.2520   -1.3611 C   0  0
   -0.8721   -0.7402   -1.1290 C   0  0
   -2.1600   -0.1406   -1.0860 C   0  0
   -2.2921    1.2296   -0.8770 C   0  0
   -1.1815    2.0522   -0.7073 C   0  0
   -1.3276    3.3909   -0.5040 O   0  0
    0.1184    1.4633   -0.7471 C   0  0
    1.2276    2.2336   -0.5832 O   0  0
    0.2341    0.0872   -0.9574 C   0  0
   -1.2784   -4.9865    0.2157 H   0  0
    0.3380   -4.7932    0.1348 H   0  0
   -1.5709   -2.8128    0.4638 H   0  0
    0.0474   -2.6477    0.5548 H   0  0
    0.1601   -2.4245   -1.8310 H   0  0
   -1.4604   -2.5885   -1.9218 H   0  0
   -3.0648   -0.7520   -1.2152 H   0  0
   -3.3002    1.6734   -0.8484 H   0  0
   -2.1790    3.7864   -0.4778 H   0  0
    1.1409    3.1591   -0.4433 H   0  0
    1.2457   -0.3468   -0.9875 H   0  0
  1  2  1  0  0  0
  2  3  1  0  0  0
  3  4  1  0  0  0
  4  5  1  0  0  0
  4 11  1  0  0  0
  5  6  1  0  0  0
  6  7  1  0  0  0
  7  8  1  0  0  0
  7  9  1  0  0  0
  9 10  1  0  0  0
  9 11  1  0  0  0
  1 12  1  0  0  0
  1 13  1  0  0  0
  2 14  1  0  0  0
  2 15  1  0  0  0
  3 16  1  0  0  0
  3 17  1  0  0  0
  5 18  1  0  0  0
  6 19  1  0  0  0
  8 20  1  0  0  0
 10 21  1  0  0  0
 11 22  1  0  0  0
M  END
$$$$
