#	Created by:	Discovery Studio
#	Creation time:	2023-12-31T22:29:20Z

@<SCITEGIC>ROOT_PROPERTY
Ligand:MaximumNumberOfAtoms
SciTegic.value.IntegerValue
100

@<SCITEGIC>ROOT_PROPERTY
Ligand:HydrogenAtomsCountTowardsMaximum
SciTegic.value.BooleanValue
FALSE

@<TRIPOS>MOLECULE
NK1145
   35    37     0 0 0
SMALL
USER_CHARGES


@<TRIPOS>ATOM
      1 C1          -19.089689   -0.827120    1.309928 C.ar     1 SUBUNIT   -0.0318
      2 C2          -20.292469   -0.183270    1.585133 C.ar     1 SUBUNIT    0.0753
      3 C3          -20.245543    1.125082    2.070668 C.ar     1 SUBUNIT   -0.0318
      4 C4          -19.033295    1.772500    2.276072 C.ar     1 SUBUNIT   -0.0596
      5 C5          -17.841808    1.116379    1.997200 C.ar     1 SUBUNIT   -0.0621
      6 C6          -17.872349   -0.185533    1.513489 C.ar     1 SUBUNIT   -0.0596
      7 C7          -23.168242    0.859835    0.747002 C.3      1 SUBUNIT   -0.0104
      8 C8          -24.558329    1.481876    1.111485 C.3      1 SUBUNIT    0.0121
      9 N9          -24.572073    1.976707    2.527102 N.3      1 SUBUNIT   -0.3002
     10 C10         -25.869864    2.630697    2.814255 C.3      1 SUBUNIT   -0.0128
     11 C11         -24.487366    0.676337    3.269107 C.3      1 SUBUNIT    0.0121
     12 C12         -23.093319   -0.002713    3.056188 C.3      1 SUBUNIT   -0.0104
     13 C13         -22.866899   -0.359933    1.598577 C.3      1 SUBUNIT    0.0672
     14 C14         -25.697897    0.414187    1.131975 C.3      1 SUBUNIT   -0.0359
     15 C15         -25.648994   -0.141367    2.620837 C.3      1 SUBUNIT   -0.0359
     16 O16         -21.520382   -0.942593    1.339148 O.3      1 SUBUNIT   -0.3427
     17 H17         -19.100752   -1.764178    0.960929 H        1 SUBUNIT    0.0650
     18 H18         -21.099211    1.604518    2.274119 H        1 SUBUNIT    0.0650
     19 H19         -19.019033    2.709800    2.624305 H        1 SUBUNIT    0.0623
     20 H20         -16.967010    1.578201    2.143660 H        1 SUBUNIT    0.0622
     21 H21         -17.017113   -0.662635    1.311140 H        1 SUBUNIT    0.0623
     22 H22         -23.174870    0.590566   -0.216040 H        1 SUBUNIT    0.0309
     23 H23         -22.455780    1.545316    0.897054 H        1 SUBUNIT    0.0309
     24 H24         -24.750820    2.282813    0.384453 H        1 SUBUNIT    0.0468
     25 H26         -25.876209    2.959574    3.758562 H        1 SUBUNIT    0.0394
     26 H27         -26.611206    1.971843    2.686280 H        1 SUBUNIT    0.0394
     27 H28         -25.999483    3.402771    2.192037 H        1 SUBUNIT    0.0394
     28 H29         -24.619743    0.801305    4.352579 H        1 SUBUNIT    0.0468
     29 H30         -22.375914    0.628285    3.351437 H        1 SUBUNIT    0.0309
     30 H31         -23.050879   -0.837108    3.605718 H        1 SUBUNIT    0.0309
     31 H33         -26.584490    0.832434    0.934438 H        1 SUBUNIT    0.0283
     32 H34         -25.518051   -0.314688    0.471372 H        1 SUBUNIT    0.0283
     33 H35         -25.447315   -1.120761    2.631498 H        1 SUBUNIT    0.0283
     34 H36         -26.513453    0.026610    3.094647 H        1 SUBUNIT    0.0283
     35 H71         -23.596781   -1.131457    1.333790 H        1 SUBUNIT    0.0610
@<TRIPOS>BOND
     1    1    2 ar
     2    1    6 ar
     3    1   17 1
     4    2    3 ar
     5    2   16 1
     6    3    4 ar
     7    3   18 1
     8    4    5 ar
     9    4   19 1
    10    5    6 ar
    11    5   20 1
    12    6   21 1
    13    7    8 1
    14    7   13 1
    15    7   22 1
    16    7   23 1
    17    8    9 1
    18    8   14 1
    19    8   24 1
    20    9   10 1
    21    9   11 1
    22   10   25 1
    23   10   26 1
    24   10   27 1
    25   11   12 1
    26   11   15 1
    27   11   28 1
    28   12   13 1
    29   12   29 1
    30   12   30 1
    31   13   16 1
    32   14   15 1
    33   14   31 1
    34   14   32 1
    35   15   33 1
    36   15   34 1
    37   13   35 1
@<SCITEGIC>ATOM_PROPERTY
Formal Charge
SciTegic.value.StringValue
1 0
2 0
3 0
4 0
5 0
6 0
7 0
8 0
9 0
10 0
11 0
12 0
13 0
14 0
15 0
16 0
17 0
18 0
19 0
20 0
21 0
22 0
23 0
24 0
25 0
26 0
27 0
28 0
29 0
30 0
31 0
32 0
33 0
34 0
35 0

@<SCITEGIC>ATOM_PROPERTY
pdb_tempFactor
SciTegic.value.DoubleValue
1 0.00
2 0.00
3 0.00
4 0.00
5 0.00
6 0.00
7 0.00
8 0.00
9 0.00
10 0.00
11 0.00
12 0.00
13 0.00
14 0.00
15 0.00
16 0.00
17 0.00
18 0.00
19 0.00
20 0.00
21 0.00
22 0.00
23 0.00
24 0.00
25 0.00
26 0.00
27 0.00
28 0.00
29 0.00
30 0.00
31 0.00
32 0.00
33 0.00
34 0.00
35 0.00

@<SCITEGIC>ATOM_PROPERTY
pdb_occupancy
SciTegic.value.DoubleValue
1 1.00
2 1.00
3 1.00
4 1.00
5 1.00
6 1.00
7 1.00
8 1.00
9 1.00
10 1.00
11 1.00
12 1.00
13 1.00
14 1.00
15 1.00
16 1.00
17 1.00
18 1.00
19 1.00
20 1.00
21 1.00
22 1.00
23 1.00
24 1.00
25 1.00
26 1.00
27 1.00
28 1.00
29 1.00
30 1.00
31 1.00
32 1.00
33 1.00
34 1.00
35 1.00

