#	Created by:	Discovery Studio
#	Creation time:	2024-01-01T18:01:05Z

@<TRIPOS>MOLECULE
inactive1
   27    29     0 0 0
SMALL
USER_CHARGES


@<TRIPOS>ATOM
      1 C1          -19.701508   21.125505    0.743161 C.2      1 SUBUNIT    0.0568
      2 C2          -20.693096   22.110209    0.580461 C.2      1 SUBUNIT    0.0849
      3 N3          -22.022495   21.837709    0.950961 N.pl3    1 SUBUNIT    0.3086
      4 C4          -22.360497   20.580404    1.484261 C.2      1 SUBUNIT    0.1555
      5 C5          -21.368996   19.595711    1.646961 C.2      1 SUBUNIT   -0.0054
      6 C6          -20.039497   19.868210    1.276361 C.2      1 SUBUNIT   -0.0427
      7 H7          -20.427395   23.097912    0.161462 H        1 SUBUNIT    0.1066
      8 H8          -21.634598   18.608110    2.065861 H        1 SUBUNIT    0.0676
      9 H9          -19.260509   19.094610    1.404261 H        1 SUBUNIT    0.0633
     10 N10         -18.076509   22.588911   -0.127538 N.2      1 SUBUNIT   -0.1741
     11 C11         -18.466808   21.414406    0.385761 C.2      1 SUBUNIT    0.1794
     12 N12         -17.281609   20.547607    0.465561 N.2      1 SUBUNIT   -0.2023
     13 C13         -16.237509   21.243906   -0.003738 C.2      1 SUBUNIT    0.1714
     14 N14         -16.606110   22.635012   -0.443138 N.pl3    1 SUBUNIT   -0.1535
     15 N15         -14.961403   20.784906   -0.094438 N.pl3    1 SUBUNIT   -0.2756
     16 H16         -14.915703   19.730911    0.285461 H        1 SUBUNIT    0.1268
     17 N17         -23.645002   20.317207    1.842261 N.pl3    1 SUBUNIT   -0.2712
     18 H18         -16.037407   23.376812   -0.832739 H        1 SUBUNIT    0.1588
     19 H19         -14.219206   21.368408   -0.460638 H        1 SUBUNIT    0.1268
     20 H20         -24.343405   21.039606    1.716961 H        1 SUBUNIT    0.1276
     21 H21         -23.898802   19.415510    2.226962 H        1 SUBUNIT    0.1276
     22 C44         -22.654396   23.220137    0.950961 C.3      1 SUBUNIT    0.1617
     23 C46         -24.240896   23.482868    0.950961 C.3      1 SUBUNIT    0.0465
     24 C47         -24.881113   24.883482    0.950961 C.3      1 SUBUNIT    0.0041
     25 C48         -23.988253   26.138235    0.950961 C.3      1 SUBUNIT    0.0003
     26 C49         -22.455173   25.992371    0.950961 C.3      1 SUBUNIT    0.0041
     27 C50         -21.814957   24.591757    0.950961 C.3      1 SUBUNIT    0.0465
@<TRIPOS>BOND
     1    1    2 2
     2    1    6 1
     3    1   11 1
     4    2    3 1
     5    2    7 1
     6    3    4 2
     7    4    5 1
     8    4   17 1
     9    5    6 2
    10    5    8 1
    11    6    9 1
    12   10   11 2
    13   10   14 1
    14   11   12 1
    15   12   13 2
    16   13   14 1
    17   13   15 1
    18   14   18 1
    19   15   16 1
    20   15   19 1
    21   17   20 1
    22   17   21 1
    23    3   22 1
    24   23   24 1
    25   24   25 1
    26   25   26 1
    27   26   27 1
    28   22   23 1
    29   22   27 1
@<SCITEGIC>ATOM_PROPERTY
Formal Charge
SciTegic.value.StringValue
1 0
2 0
3 0
4 0
5 0
6 0
7 0
8 0
9 0
10 0
11 0
12 0
13 0
14 0
15 0
16 0
17 0
18 0
19 0
20 0
21 0
22 0
23 0
24 0
25 0
26 0
27 0

@<SCITEGIC>ATOM_PROPERTY
pdb_tempFactor
SciTegic.value.DoubleValue
1 0.00
2 0.00
3 0.00
4 0.00
5 0.00
6 0.00
7 0.00
8 0.00
9 0.00
10 0.00
11 0.00
12 0.00
13 0.00
14 0.00
15 0.00
16 0.00
17 0.00
18 0.00
19 0.00
20 0.00
21 0.00
22 0.00
23 0.00
24 0.00
25 0.00
26 0.00
27 0.00

@<SCITEGIC>ATOM_PROPERTY
pdb_occupancy
SciTegic.value.DoubleValue
1 1.00
2 1.00
3 1.00
4 1.00
5 1.00
6 1.00
7 1.00
8 1.00
9 1.00
10 1.00
11 1.00
12 1.00
13 1.00
14 1.00
15 1.00
16 1.00
17 1.00
18 1.00
19 1.00
20 1.00
21 1.00
22 1.00
23 1.00
24 1.00
25 1.00
26 1.00
27 1.00

#	Created by:	Discovery Studio
#	Creation time:	2024-01-01T18:01:05Z

@<TRIPOS>MOLECULE
active1
   19    20     0 0 0
SMALL
USER_CHARGES


@<TRIPOS>ATOM
      1 H21         -23.939426   19.358416    2.220425 H        1 SUBUNIT    0.1276
      2 H20         -24.384026   20.982515    1.710425 H        1 SUBUNIT    0.1276
      3 H19         -14.259837   21.311316   -0.467176 H        1 SUBUNIT    0.1268
      4 H18         -16.078033   23.319715   -0.839276 H        1 SUBUNIT    0.1588
      5 N17         -23.685623   20.260115    1.835725 N.pl3    1 SUBUNIT   -0.2712
      6 H16         -14.956340   19.673815    0.278924 H        1 SUBUNIT    0.1268
      7 N15         -15.002040   20.727816   -0.100976 N.pl3    1 SUBUNIT   -0.2756
      8 N14         -16.646734   22.577917   -0.449676 N.pl3    1 SUBUNIT   -0.1535
      9 C13         -16.278135   21.186815   -0.010276 C.2      1 SUBUNIT    0.1714
     10 N12         -17.322233   20.490515    0.459024 N.2      1 SUBUNIT   -0.2023
     11 C11         -18.507431   21.357317    0.379224 C.2      1 SUBUNIT    0.1794
     12 N10         -18.117134   22.531816   -0.134076 N.2      1 SUBUNIT   -0.1741
     13 C6          -20.080128   19.811117    1.269824 C.2      1 SUBUNIT    0.0206
     14 C5          -21.409626   19.538614    1.640424 C.2      1 SUBUNIT    0.0622
     15 C4          -22.401123   20.523317    1.477724 C.2      1 SUBUNIT    0.1551
     16 N3          -22.063126   21.780615    0.944424 N.pl3    1 SUBUNIT    0.3036
     17 C2          -20.733727   22.053118    0.573924 C.2      1 SUBUNIT    0.1910
     18 C1          -19.742126   21.068415    0.736624 C.2      1 SUBUNIT    0.0568
     19 C38         -22.958660   23.009001    0.944424 C.3      1 SUBUNIT    0.2690
@<TRIPOS>BOND
     1    5    1 1
     2    5    2 1
     3    7    3 1
     4    7    6 1
     5    8    4 1
     6    9    7 1
     7    9    8 1
     8   10    9 2
     9   11   10 1
    10   12    8 1
    11   12   11 2
    12   14   13 2
    13   15    5 1
    14   15   14 1
    15   16   15 2
    16   17   16 1
    17   18   11 1
    18   18   13 1
    19   18   17 2
    20   16   19 1
@<SCITEGIC>ATOM_PROPERTY
Formal Charge
SciTegic.value.StringValue
1 0
2 0
3 0
4 0
5 0
6 0
7 0
8 0
9 0
10 0
11 0
12 0
13 0
14 0
15 0
16 0
17 0
18 0
19 0

@<SCITEGIC>ATOM_PROPERTY
pdb_tempFactor
SciTegic.value.DoubleValue
1 0.00
2 0.00
3 0.00
4 0.00
5 0.00
6 0.00
7 0.00
8 0.00
9 0.00
10 0.00
11 0.00
12 0.00
13 0.00
14 0.00
15 0.00
16 0.00
17 0.00
18 0.00
19 0.00

@<SCITEGIC>ATOM_PROPERTY
pdb_occupancy
SciTegic.value.DoubleValue
1 1.00
2 1.00
3 1.00
4 1.00
5 1.00
6 1.00
7 1.00
8 1.00
9 1.00
10 1.00
11 1.00
12 1.00
13 1.00
14 1.00
15 1.00
16 1.00
17 1.00
18 1.00
19 1.00

#	Created by:	Discovery Studio
#	Creation time:	2024-01-01T18:01:05Z

@<TRIPOS>MOLECULE
inactive2
   32    34     0 0 0
SMALL
USER_CHARGES


@<TRIPOS>ATOM
      1 H21         -23.921736   19.315424    2.187738 H        1 SUBUNIT    0.1258
      2 H20         -24.366335   20.939528    1.677737 H        1 SUBUNIT    0.1258
      3 H19         -14.242137   21.268328   -0.499862 H        1 SUBUNIT    0.1268
      4 H18         -16.060335   23.276728   -0.871962 H        1 SUBUNIT    0.1588
      5 N17         -23.667936   20.217127    1.803037 N.pl3    1 SUBUNIT   -0.2869
      6 H16         -14.938638   19.630827    0.246237 H        1 SUBUNIT    0.1268
      7 N15         -14.984338   20.684828   -0.133662 N.pl3    1 SUBUNIT   -0.2756
      8 N14         -16.629034   22.534929   -0.482362 N.pl3    1 SUBUNIT   -0.1535
      9 C13         -16.260435   21.143827   -0.042963 C.2      1 SUBUNIT    0.1714
     10 N12         -17.304535   20.447527    0.426337 N.2      1 SUBUNIT   -0.2024
     11 C11         -18.489735   21.314329    0.346537 C.2      1 SUBUNIT    0.1779
     12 N10         -18.099434   22.488829   -0.166762 N.2      1 SUBUNIT   -0.1741
     13 C6          -20.062437   19.768127    1.237137 C.2      1 SUBUNIT   -0.0322
     14 C5          -21.391935   19.495625    1.607737 C.2      1 SUBUNIT    0.0445
     15 C4          -22.383436   20.480330    1.445036 C.2      1 SUBUNIT    0.1029
     16 N3          -22.045435   21.737627    0.911737 N.2      1 SUBUNIT   -0.2444
     17 C2          -20.716036   22.010130    0.541237 C.2      1 SUBUNIT    0.1249
     18 C1          -19.724436   21.025427    0.703937 C.2      1 SUBUNIT    0.0422
     19 C38         -19.228228   18.676403    1.256125 C.3      1 SUBUNIT   -0.0267
     20 H40         -18.307842   18.954784    0.981693 H        1 SUBUNIT    0.0316
     21 H42         -19.569960   17.984085    0.620537 H        1 SUBUNIT    0.0316
     22 C44         -19.183111   18.088631    2.678830 C.3      1 SUBUNIT   -0.0463
     23 C46         -18.248186   16.865086    2.700148 C.3      1 SUBUNIT   -0.0411
     24 H48         -20.103102   17.809372    2.953952 H        1 SUBUNIT    0.0273
     25 H50         -18.840857   18.780163    3.314990 H        1 SUBUNIT    0.0273
     26 C52         -17.748009   16.235146    1.941353 C.3      1 SUBUNIT   -0.0502
     27 C53         -17.784637   16.233978    3.480913 C.3      1 SUBUNIT   -0.0502
     28 H57         -18.855482   17.659443    2.686307 H        1 SUBUNIT    0.0303
     29 H59         -16.950226   16.552847    1.428896 H        1 SUBUNIT    0.0269
     30 H61         -18.247423   15.560927    1.397281 H        1 SUBUNIT    0.0269
     31 H63         -18.309336   15.558953    3.999597 H        1 SUBUNIT    0.0269
     32 H65         -17.012138   16.550871    4.031212 H        1 SUBUNIT    0.0269
@<TRIPOS>BOND
     1    5    1 1
     2    5    2 1
     3    7    3 1
     4    7    6 1
     5    8    4 1
     6    9    7 1
     7    9    8 1
     8   10    9 2
     9   11   10 1
    10   12    8 1
    11   12   11 2
    12   14   13 2
    13   15    5 1
    14   15   14 1
    15   16   15 2
    16   17   16 1
    17   18   11 1
    18   18   13 1
    19   18   17 2
    20   13   19 1
    21   19   20 1
    22   19   21 1
    23   19   22 1
    24   22   23 1
    25   22   24 1
    26   22   25 1
    27   26   27 1
    28   23   26 1
    29   23   27 1
    30   23   28 1
    31   26   29 1
    32   26   30 1
    33   27   31 1
    34   27   32 1
@<SCITEGIC>ATOM_PROPERTY
Formal Charge
SciTegic.value.StringValue
1 0
2 0
3 0
4 0
5 0
6 0
7 0
8 0
9 0
10 0
11 0
12 0
13 0
14 0
15 0
16 0
17 0
18 0
19 0
20 0
21 0
22 0
23 0
24 0
25 0
26 0
27 0
28 0
29 0
30 0
31 0
32 0

@<SCITEGIC>ATOM_PROPERTY
pdb_tempFactor
SciTegic.value.DoubleValue
1 0.00
2 0.00
3 0.00
4 0.00
5 0.00
6 0.00
7 0.00
8 0.00
9 0.00
10 0.00
11 0.00
12 0.00
13 0.00
14 0.00
15 0.00
16 0.00
17 0.00
18 0.00
19 0.00
20 0.00
21 0.00
22 0.00
23 0.00
24 0.00
25 0.00
26 0.00
27 0.00
28 0.00
29 0.00
30 0.00
31 0.00
32 0.00

@<SCITEGIC>ATOM_PROPERTY
pdb_occupancy
SciTegic.value.DoubleValue
1 1.00
2 1.00
3 1.00
4 1.00
5 1.00
6 1.00
7 1.00
8 1.00
9 1.00
10 1.00
11 1.00
12 1.00
13 1.00
14 1.00
15 1.00
16 1.00
17 1.00
18 1.00
19 1.00
20 1.00
21 1.00
22 1.00
23 1.00
24 1.00
25 1.00
26 1.00
27 1.00
28 1.00
29 1.00
30 1.00
31 1.00
32 1.00

#	Created by:	Discovery Studio
#	Creation time:	2024-01-01T18:01:05Z

@<TRIPOS>MOLECULE
active2
   24    26     0 0 0
SMALL
USER_CHARGES


@<TRIPOS>ATOM
      1 H21         -23.967833   19.363979    2.169637 H        1 SUBUNIT    0.1258
      2 H20         -24.412436   20.988092    1.659637 H        1 SUBUNIT    0.1258
      3 C22         -13.916347   21.609240   -0.701439 C.3      1 SUBUNIT    0.0188
      4 H18         -16.106413   23.325294   -0.890062 H        1 SUBUNIT    0.1588
      5 N17         -23.714033   20.265686    1.784937 N.pl3    1 SUBUNIT   -0.2869
      6 N15         -15.030412   20.733393   -0.151762 N.2      1 SUBUNIT   -0.2456
      7 N14         -16.675112   22.583490   -0.500462 N.pl3    1 SUBUNIT   -0.1531
      8 C13         -16.306513   21.192392   -0.061062 C.2      1 SUBUNIT    0.1770
      9 N12         -17.350615   20.496086    0.408238 N.2      1 SUBUNIT   -0.2019
     10 C11         -18.535822   21.362890    0.328438 C.2      1 SUBUNIT    0.1783
     11 N10         -18.145521   22.537390   -0.184862 N.2      1 SUBUNIT   -0.1741
     12 C6          -20.108526   19.816681    1.219037 C.2      1 SUBUNIT   -0.0075
     13 C5          -21.438025   19.544178    1.589636 C.2      1 SUBUNIT    0.0492
     14 C4          -22.429533   20.528889    1.426937 C.2      1 SUBUNIT    0.1032
     15 N3          -22.091532   21.786188    0.893637 N.2      1 SUBUNIT   -0.2443
     16 C2          -20.762125   22.058687    0.523138 C.2      1 SUBUNIT    0.1252
     17 C1          -19.770529   21.073992    0.685838 C.2      1 SUBUNIT    0.0465
     18 C36         -19.212301   18.841536    1.219037 C.2      1 SUBUNIT   -0.0501
     19 C38         -19.406393   17.385830    1.219037 C.2      1 SUBUNIT    0.0126
     20 C40         -17.756586   18.938585    1.219037 C.3      1 SUBUNIT    0.0441
     21 C42         -13.596990   21.295095   -0.187711 C.3      1 SUBUNIT    0.0637
     22 H44         -13.594810   21.395472   -1.623892 H        1 SUBUNIT    0.0449
     23 H46         -14.040444   22.597460   -0.611839 H        1 SUBUNIT    0.0449
     24 H48         -14.317796   20.771025    0.265931 H        1 SUBUNIT    0.0449
@<TRIPOS>BOND
     1    5    1 1
     2    5    2 1
     3    6    3 1
     4    7    4 1
     5    8    6 1
     6    8    7 1
     7    9    8 2
     8   10    9 1
     9   11    7 1
    10   11   10 2
    11   13   12 2
    12   14    5 1
    13   14   13 1
    14   15   14 2
    15   16   15 1
    16   17   10 1
    17   17   12 1
    18   17   16 2
    19   12   18 1
    20   18   19 2
    21   18   20 1
    22    3   21 1
    23    3   22 1
    24    3   23 1
    25   21   24 1
    26    6   21 1
@<SCITEGIC>ATOM_PROPERTY
Formal Charge
SciTegic.value.StringValue
1 0
2 0
3 0
4 0
5 0
6 0
7 0
8 0
9 0
10 0
11 0
12 0
13 0
14 0
15 0
16 0
17 0
18 0
19 0
20 0
21 0
22 0
23 0
24 0

@<SCITEGIC>ATOM_PROPERTY
pdb_tempFactor
SciTegic.value.DoubleValue
1 0.00
2 0.00
3 0.00
4 0.00
5 0.00
6 0.00
7 0.00
8 0.00
9 0.00
10 0.00
11 0.00
12 0.00
13 0.00
14 0.00
15 0.00
16 0.00
17 0.00
18 0.00
19 0.00
20 0.00
21 0.00
22 0.00
23 0.00
24 0.00

@<SCITEGIC>ATOM_PROPERTY
pdb_occupancy
SciTegic.value.DoubleValue
1 1.00
2 1.00
3 1.00
4 1.00
5 1.00
6 1.00
7 1.00
8 1.00
9 1.00
10 1.00
11 1.00
12 1.00
13 1.00
14 1.00
15 1.00
16 1.00
17 1.00
18 1.00
19 1.00
20 1.00
21 1.00
22 1.00
23 1.00
24 1.00

#	Created by:	Discovery Studio
#	Creation time:	2024-01-01T18:01:05Z

@<TRIPOS>MOLECULE
active4
   27    28     0 0 0
SMALL
USER_CHARGES


@<TRIPOS>ATOM
      1 H21         -23.848820   19.326567    2.175601 H        1 SUBUNIT    0.1258
      2 H20         -24.293419   20.950666    1.665602 H        1 SUBUNIT    0.1258
      3 H19         -14.169222   21.279467   -0.511998 H        1 SUBUNIT    0.1268
      4 N17         -23.595016   20.228268    1.790902 N.pl3    1 SUBUNIT   -0.2869
      5 H16         -14.865721   19.641968    0.234102 H        1 SUBUNIT    0.1268
      6 N15         -14.911421   20.695967   -0.145798 N.pl3    1 SUBUNIT   -0.2754
      7 N14         -16.556120   22.546066   -0.494498 N.pl3    1 SUBUNIT   -0.1401
      8 C13         -16.187519   21.154966   -0.055098 C.2      1 SUBUNIT    0.1742
      9 N12         -17.231617   20.458668    0.414202 N.2      1 SUBUNIT   -0.2022
     10 C11         -18.416821   21.325468    0.334402 C.2      1 SUBUNIT    0.1779
     11 N10         -18.026520   22.499966   -0.178898 N.2      1 SUBUNIT   -0.1712
     12 C6          -19.989517   19.779266    1.225001 C.2      1 SUBUNIT    0.0168
     13 C5          -21.319019   19.506767    1.595602 C.2      1 SUBUNIT    0.0410
     14 C4          -22.310514   20.491467    1.432902 C.2      1 SUBUNIT    0.1026
     15 N3          -21.972517   21.748768    0.899601 N.2      1 SUBUNIT   -0.2444
     16 C2          -20.643118   22.021265    0.529102 C.2      1 SUBUNIT    0.1246
     17 C1          -19.651518   21.036568    0.691802 C.2      1 SUBUNIT    0.0390
     18 C36         -15.713734   23.644861   -1.071594 C.3      1 SUBUNIT    0.0278
     19 C38         -16.595087   24.877052   -1.348204 C.3      1 SUBUNIT   -0.0408
     20 H40         -14.994081   23.889204   -0.421673 H        1 SUBUNIT    0.0456
     21 H42         -15.299479   23.332918   -1.926629 H        1 SUBUNIT    0.0456
     22 C44         -15.730238   26.005146   -1.940688 C.3      1 SUBUNIT   -0.0641
     23 H46         -17.314737   24.632710   -1.998123 H        1 SUBUNIT    0.0278
     24 H48         -17.009340   25.188993   -0.493168 H        1 SUBUNIT    0.0278
     25 H50         -16.302523   26.805237   -2.120297 H        1 SUBUNIT    0.0231
     26 H52         -15.315561   25.693817   -2.795774 H        1 SUBUNIT    0.0231
     27 H54         -15.010254   26.249937   -1.291263 H        1 SUBUNIT    0.0231
@<TRIPOS>BOND
     1    4    1 1
     2    4    2 1
     3    6    3 1
     4    6    5 1
     5    8    6 1
     6    8    7 1
     7    9    8 2
     8   10    9 1
     9   11    7 1
    10   11   10 2
    11   13   12 2
    12   14    4 1
    13   14   13 1
    14   15   14 2
    15   16   15 1
    16   17   10 1
    17   17   12 1
    18   17   16 2
    19    7   18 1
    20   18   19 1
    21   18   20 1
    22   18   21 1
    23   19   22 1
    24   19   23 1
    25   19   24 1
    26   22   25 1
    27   22   26 1
    28   22   27 1
@<SCITEGIC>ATOM_PROPERTY
Formal Charge
SciTegic.value.StringValue
1 0
2 0
3 0
4 0
5 0
6 0
7 0
8 0
9 0
10 0
11 0
12 0
13 0
14 0
15 0
16 0
17 0
18 0
19 0
20 0
21 0
22 0
23 0
24 0
25 0
26 0
27 0

@<SCITEGIC>ATOM_PROPERTY
pdb_tempFactor
SciTegic.value.DoubleValue
1 0.00
2 0.00
3 0.00
4 0.00
5 0.00
6 0.00
7 0.00
8 0.00
9 0.00
10 0.00
11 0.00
12 0.00
13 0.00
14 0.00
15 0.00
16 0.00
17 0.00
18 0.00
19 0.00
20 0.00
21 0.00
22 0.00
23 0.00
24 0.00
25 0.00
26 0.00
27 0.00

@<SCITEGIC>ATOM_PROPERTY
pdb_occupancy
SciTegic.value.DoubleValue
1 1.00
2 1.00
3 1.00
4 1.00
5 1.00
6 1.00
7 1.00
8 1.00
9 1.00
10 1.00
11 1.00
12 1.00
13 1.00
14 1.00
15 1.00
16 1.00
17 1.00
18 1.00
19 1.00
20 1.00
21 1.00
22 1.00
23 1.00
24 1.00
25 1.00
26 1.00
27 1.00

#	Created by:	Discovery Studio
#	Creation time:	2024-01-01T18:01:05Z

@<TRIPOS>MOLECULE
inactive4
   34    36     0 0 0
SMALL
USER_CHARGES


@<TRIPOS>ATOM
      1 H21         -23.874708   19.336445    2.224840 H        1 SUBUNIT    0.1258
      2 H20         -24.319307   20.960543    1.714840 H        1 SUBUNIT    0.1258
      3 H19         -14.195109   21.289343   -0.462759 H        1 SUBUNIT    0.1308
      4 N17         -23.620909   20.238142    1.840140 N.pl3    1 SUBUNIT   -0.2869
      5 C25         -14.875360   19.277082    0.418418 C.3      1 SUBUNIT    0.0205
      6 N15         -14.937308   20.705843   -0.096559 N.pl3    1 SUBUNIT   -0.2599
      7 N14         -16.582008   22.555943   -0.445259 N.pl3    1 SUBUNIT   -0.1354
      8 C13         -16.213408   21.164843   -0.005859 C.2      1 SUBUNIT    0.1773
      9 N12         -17.257505   20.468542    0.463440 N.2      1 SUBUNIT   -0.2019
     10 C11         -18.442707   21.335342    0.383641 C.2      1 SUBUNIT    0.1779
     11 N10         -18.052406   22.509842   -0.129659 N.2      1 SUBUNIT   -0.1709
     12 C6          -20.015408   19.789143    1.274240 C.2      1 SUBUNIT    0.0168
     13 C5          -21.344906   19.516644    1.644840 C.2      1 SUBUNIT    0.0410
     14 C4          -22.336405   20.501343    1.482140 C.2      1 SUBUNIT    0.1026
     15 N3          -21.998405   21.758642    0.948840 N.2      1 SUBUNIT   -0.2444
     16 C2          -20.669006   22.031143    0.578341 C.2      1 SUBUNIT    0.1246
     17 C1          -19.677408   21.046442    0.741041 C.2      1 SUBUNIT    0.0390
     18 C36         -16.367447   24.080032   -0.496306 C.3      1 SUBUNIT    0.0522
     19 C37         -14.941421   24.654198   -0.587295 C.3      1 SUBUNIT   -0.0338
     20 C38         -14.726857   26.178288   -0.638341 C.3      1 SUBUNIT   -0.0519
     21 C39         -13.300830   26.752453   -0.729331 C.3      1 SUBUNIT   -0.0561
     22 C40         -13.086265   28.276541   -0.780378 C.3      1 SUBUNIT   -0.0654
     23 H46         -15.194757   18.474489   -0.085387 H        1 SUBUNIT    0.0450
     24 H48         -14.361817   18.982695    1.224402 H        1 SUBUNIT    0.0450
     25 H50         -16.897829   24.472580    0.255094 H        1 SUBUNIT    0.0506
     26 H52         -14.443913   24.319374    0.212943 H        1 SUBUNIT    0.0284
     27 H54         -14.530889   24.277012   -1.417472 H        1 SUBUNIT    0.0284
     28 H56         -15.224364   26.513111   -1.438580 H        1 SUBUNIT    0.0267
     29 H58         -15.137389   26.555473    0.191836 H        1 SUBUNIT    0.0267
     30 H60         -12.803321   26.417629    0.070907 H        1 SUBUNIT    0.0264
     31 H62         -12.890296   26.375267   -1.559508 H        1 SUBUNIT    0.0264
     32 H64         -12.107699   28.474133   -0.837713 H        1 SUBUNIT    0.0230
     33 H66         -13.462312   28.694454    0.046660 H        1 SUBUNIT    0.0230
     34 H68         -13.549260   28.652107   -1.583273 H        1 SUBUNIT    0.0230
@<TRIPOS>BOND
     1    4    1 1
     2    4    2 1
     3    6    3 1
     4    6    5 1
     5    8    6 1
     6    8    7 1
     7    9    8 2
     8   10    9 1
     9   11    7 1
    10   11   10 2
    11   13   12 2
    12   14    4 1
    13   14   13 1
    14   15   14 2
    15   16   15 1
    16   17   10 1
    17   17   12 1
    18   17   16 2
    19   18   19 1
    20   19   20 1
    21   20   21 1
    22   21   22 1
    23    5   18 1
    24    5   23 1
    25    5   24 1
    26   18   25 1
    27   19   26 1
    28   19   27 1
    29   20   28 1
    30   20   29 1
    31   21   30 1
    32   21   31 1
    33   22   32 1
    34   22   33 1
    35   22   34 1
    36    7   18 1
@<SCITEGIC>ATOM_PROPERTY
Formal Charge
SciTegic.value.StringValue
1 0
2 0
3 0
4 0
5 0
6 0
7 0
8 0
9 0
10 0
11 0
12 0
13 0
14 0
15 0
16 0
17 0
18 0
19 0
20 0
21 0
22 0
23 0
24 0
25 0
26 0
27 0
28 0
29 0
30 0
31 0
32 0
33 0
34 0

@<SCITEGIC>ATOM_PROPERTY
pdb_tempFactor
SciTegic.value.DoubleValue
1 0.00
2 0.00
3 0.00
4 0.00
5 0.00
6 0.00
7 0.00
8 0.00
9 0.00
10 0.00
11 0.00
12 0.00
13 0.00
14 0.00
15 0.00
16 0.00
17 0.00
18 0.00
19 0.00
20 0.00
21 0.00
22 0.00
23 0.00
24 0.00
25 0.00
26 0.00
27 0.00
28 0.00
29 0.00
30 0.00
31 0.00
32 0.00
33 0.00
34 0.00

@<SCITEGIC>ATOM_PROPERTY
pdb_occupancy
SciTegic.value.DoubleValue
1 1.00
2 1.00
3 1.00
4 1.00
5 1.00
6 1.00
7 1.00
8 1.00
9 1.00
10 1.00
11 1.00
12 1.00
13 1.00
14 1.00
15 1.00
16 1.00
17 1.00
18 1.00
19 1.00
20 1.00
21 1.00
22 1.00
23 1.00
24 1.00
25 1.00
26 1.00
27 1.00
28 1.00
29 1.00
30 1.00
31 1.00
32 1.00
33 1.00
34 1.00

#	Created by:	Discovery Studio
#	Creation time:	2024-01-01T18:01:05Z

@<TRIPOS>MOLECULE
active3
   23    24     0 0 0
SMALL
USER_CHARGES


@<TRIPOS>ATOM
      1 H21         -23.933111   19.188765    2.285671 H        1 SUBUNIT    0.1276
      2 H20         -24.377710   20.812864    1.775671 H        1 SUBUNIT    0.1276
      3 C22         -14.931633   19.110876    0.486625 C.3      1 SUBUNIT   -0.0194
      4 H18         -16.071720   23.150063   -0.774027 H        1 SUBUNIT    0.1652
      5 N17         -23.679312   20.090464    1.900971 N.pl3    1 SUBUNIT   -0.2712
      6 N14         -16.640419   22.408262   -0.384427 N.pl3    1 SUBUNIT   -0.1516
      7 C23         -16.271820   21.017164    0.054973 C.2      1 SUBUNIT    0.9086
      8 N12         -17.315920   20.320864    0.524273 N.2      1 SUBUNIT   -0.1969
      9 C11         -18.501120   21.187662    0.444472 C.2      1 SUBUNIT    0.1855
     10 N10         -18.110823   22.362162   -0.068827 N.2      1 SUBUNIT   -0.1688
     11 C6          -20.073820   19.641464    1.335072 C.2      1 SUBUNIT    0.0206
     12 C5          -21.403313   19.368965    1.705671 C.2      1 SUBUNIT    0.0622
     13 C4          -22.394810   20.353662    1.542972 C.2      1 SUBUNIT    0.1551
     14 N3          -22.056810   21.610964    1.009672 N.pl3    1 SUBUNIT    0.3036
     15 C2          -20.727417   21.883463    0.639173 C.2      1 SUBUNIT    0.1911
     16 C1          -19.735821   20.898764    0.801873 C.2      1 SUBUNIT    0.0574
     17 C33         -22.883005   22.975824    0.978881 C.3      1 SUBUNIT    0.2690
     18 H35         -14.972326   20.050711    0.147425 H        1 SUBUNIT    0.0194
     19 C37         -15.800228   20.300398   -1.221808 C.3      1 SUBUNIT    0.0933
     20 C38         -14.365120   19.748362   -1.307395 C.3      1 SUBUNIT    0.0134
     21 C39         -13.399666   19.926210   -0.120858 C.3      1 SUBUNIT    0.0020
     22 C40         -13.869320   20.656092    1.151265 C.3      1 SUBUNIT    0.0134
     23 C41         -15.304426   21.208128    1.236851 C.3      1 SUBUNIT    0.0933
@<TRIPOS>BOND
     1    5    1 1
     2    5    2 1
     3    6    4 1
     4    7    6 1
     5    8    7 2
     6    9    8 1
     7   10    6 1
     8   10    9 2
     9   12   11 2
    10   13    5 1
    11   13   12 1
    12   14   13 2
    13   15   14 1
    14   16    9 1
    15   16   11 1
    16   16   15 2
    17   14   17 1
    18    3   18 1
    19   19   20 1
    20   20   21 1
    21   21   22 1
    22   22   23 1
    23    7   19 1
    24    7   23 1
@<SCITEGIC>ATOM_PROPERTY
Formal Charge
SciTegic.value.StringValue
1 0
2 0
3 0
4 0
5 0
6 0
7 0
8 0
9 0
10 0
11 0
12 0
13 0
14 0
15 0
16 0
17 0
18 0
19 0
20 0
21 0
22 0
23 0

@<SCITEGIC>ATOM_PROPERTY
pdb_tempFactor
SciTegic.value.DoubleValue
1 0.00
2 0.00
3 0.00
4 0.00
5 0.00
6 0.00
7 0.00
8 0.00
9 0.00
10 0.00
11 0.00
12 0.00
13 0.00
14 0.00
15 0.00
16 0.00
17 0.00
18 0.00
19 0.00
20 0.00
21 0.00
22 0.00
23 0.00

@<SCITEGIC>ATOM_PROPERTY
pdb_occupancy
SciTegic.value.DoubleValue
1 1.00
2 1.00
3 1.00
4 1.00
5 1.00
6 1.00
7 1.00
8 1.00
9 1.00
10 1.00
11 1.00
12 1.00
13 1.00
14 1.00
15 1.00
16 1.00
17 1.00
18 1.00
19 1.00
20 1.00
21 1.00
22 1.00
23 1.00

#	Created by:	Discovery Studio
#	Creation time:	2024-01-01T18:01:05Z

@<TRIPOS>MOLECULE
inactive3
   34    36     0 0 0
SMALL
USER_CHARGES


@<TRIPOS>ATOM
      1 H21         -23.935770   19.338404    2.169676 H        1 SUBUNIT    0.1258
      2 H20         -24.380375   20.962519    1.659674 H        1 SUBUNIT    0.1258
      3 C22         -13.884288   21.583666   -0.701402 C.3      1 SUBUNIT    0.0219
      4 H18         -16.074354   23.299721   -0.890025 H        1 SUBUNIT    0.1588
      5 N17         -23.681971   20.240112    1.784974 N.pl3    1 SUBUNIT   -0.2869
      6 N15         -14.998351   20.707819   -0.151724 N.2      1 SUBUNIT   -0.2422
      7 N14         -16.643055   22.557917   -0.500424 N.pl3    1 SUBUNIT   -0.1531
      8 C13         -16.274452   21.166819   -0.061024 C.2      1 SUBUNIT    0.1773
      9 N12         -17.318558   20.470512    0.408276 N.2      1 SUBUNIT   -0.2019
     10 C11         -18.503765   21.337317    0.328476 C.2      1 SUBUNIT    0.1783
     11 N10         -18.113464   22.511816   -0.184824 N.2      1 SUBUNIT   -0.1741
     12 C6          -20.076466   19.791105    1.219074 C.2      1 SUBUNIT   -0.0075
     13 C5          -21.405964   19.518602    1.589674 C.2      1 SUBUNIT    0.0492
     14 C4          -22.397470   20.503315    1.426975 C.2      1 SUBUNIT    0.1032
     15 N3          -22.059469   21.760614    0.893675 N.2      1 SUBUNIT   -0.2443
     16 C2          -20.730064   22.033113    0.523176 C.2      1 SUBUNIT    0.1252
     17 C1          -19.738468   21.048418    0.685875 C.2      1 SUBUNIT    0.0465
     18 C36         -19.180243   18.815960    1.219074 C.2      1 SUBUNIT   -0.0501
     19 C38         -19.374332   17.360254    1.219074 C.2      1 SUBUNIT    0.0126
     20 C40         -17.724529   18.913010    1.219074 C.3      1 SUBUNIT    0.0441
     21 C42         -13.564931   21.269522   -0.187672 C.3      1 SUBUNIT    0.0301
     22 H44         -13.562751   21.369898   -1.623854 H        1 SUBUNIT    0.0452
     23 H46         -14.008386   22.571886   -0.611802 H        1 SUBUNIT    0.0452
     24 C49         -12.292039   20.403866   -0.144252 C.3      1 SUBUNIT   -0.0361
     25 H51         -13.002805   21.726849    0.501433 H        1 SUBUNIT    0.0485
     26 C53         -10.887259   21.033636   -0.182749 C.3      1 SUBUNIT   -0.0546
     27 C54          -9.639758   20.131458   -0.219034 C.3      1 SUBUNIT   -0.0653
     28 H57         -12.340252   19.874262    0.702620 H        1 SUBUNIT    0.0283
     29 H59         -12.345085   19.785351   -0.928234 H        1 SUBUNIT    0.0283
     30 H61         -10.805419   21.606590    0.632742 H        1 SUBUNIT    0.0264
     31 H63         -10.851211   21.608934   -0.999897 H        1 SUBUNIT    0.0264
     32 H65          -8.817325   20.699810   -0.241285 H        1 SUBUNIT    0.0230
     33 H67          -9.668257   19.555122   -1.035784 H        1 SUBUNIT    0.0230
     34 H69          -9.622478   19.552778    0.596372 H        1 SUBUNIT    0.0230
@<TRIPOS>BOND
     1    5    1 1
     2    5    2 1
     3    6    3 1
     4    7    4 1
     5    8    6 1
     6    8    7 1
     7    9    8 2
     8   10    9 1
     9   11    7 1
    10   11   10 2
    11   13   12 2
    12   14    5 1
    13   14   13 1
    14   15   14 2
    15   16   15 1
    16   17   10 1
    17   17   12 1
    18   17   16 2
    19   12   18 1
    20   18   19 2
    21   18   20 1
    22    3   21 1
    23    3   22 1
    24    3   23 1
    25    6   21 1
    26   21   24 1
    27   21   25 1
    28   26   27 1
    29   24   26 1
    30   24   28 1
    31   24   29 1
    32   26   30 1
    33   26   31 1
    34   27   32 1
    35   27   33 1
    36   27   34 1
@<SCITEGIC>ATOM_PROPERTY
Formal Charge
SciTegic.value.StringValue
1 0
2 0
3 0
4 0
5 0
6 0
7 0
8 0
9 0
10 0
11 0
12 0
13 0
14 0
15 0
16 0
17 0
18 0
19 0
20 0
21 0
22 0
23 0
24 0
25 0
26 0
27 0
28 0
29 0
30 0
31 0
32 0
33 0
34 0

@<SCITEGIC>ATOM_PROPERTY
pdb_tempFactor
SciTegic.value.DoubleValue
1 0.00
2 0.00
3 0.00
4 0.00
5 0.00
6 0.00
7 0.00
8 0.00
9 0.00
10 0.00
11 0.00
12 0.00
13 0.00
14 0.00
15 0.00
16 0.00
17 0.00
18 0.00
19 0.00
20 0.00
21 0.00
22 0.00
23 0.00
24 0.00
25 0.00
26 0.00
27 0.00
28 0.00
29 0.00
30 0.00
31 0.00
32 0.00
33 0.00
34 0.00

@<SCITEGIC>ATOM_PROPERTY
pdb_occupancy
SciTegic.value.DoubleValue
1 1.00
2 1.00
3 1.00
4 1.00
5 1.00
6 1.00
7 1.00
8 1.00
9 1.00
10 1.00
11 1.00
12 1.00
13 1.00
14 1.00
15 1.00
16 1.00
17 1.00
18 1.00
19 1.00
20 1.00
21 1.00
22 1.00
23 1.00
24 1.00
25 1.00
26 1.00
27 1.00
28 1.00
29 1.00
30 1.00
31 1.00
32 1.00
33 1.00
34 1.00

