r3
  DSViewer          3D                             0

  5  5  0  0  0  0  0  0  0  0999 V2000
  -12.4951    2.6486   -0.6576 C   0  0
  -11.8350    0.9597   -1.9569 C   0  0
  -12.7494   -0.0515   -1.7558 C   0  0
  -13.1900    0.0375   -0.8896 C   0  0
  -13.0200    1.6922    0.1515 C   0  0
  1  2  1  0  0  0
  2  3  1  0  0  0
  3  4  1  0  0  0
  4  5  1  0  0  0
  5  1  1  0  0  0
M  END
$$$$
r3
  DSViewer          3D                             0

  5  4  0  0  0  0  0  0  0  0999 V2000
   -8.8369    3.8462    1.1882 C   0  0
  -12.0653    3.1489   -0.5105 C   0  0
  -12.3409    3.0735    0.7418 C   0  0
  -10.5550    3.4085    1.8388 C   0  0
   -8.8128    3.8988    1.1766 C   0  0
  1  2  1  0  0  0
  2  3  1  0  0  0
  3  4  1  0  0  0
  4  5  1  0  0  0
M  END
$$$$
r3
  DSViewer          3D                             0

  5  5  0  0  0  0  0  0  0  0999 V2000
  -10.6263   -0.8341    2.3787 C   0  0
  -12.3609    0.5029    1.3545 C   0  0
  -12.7914    1.6277    0.3769 C   0  0
  -12.2371    1.1711    2.3439 C   0  0
  -11.5088   -0.1583    2.9632 C   0  0
  1  2  1  0  0  0
  2  3  1  0  0  0
  3  4  1  0  0  0
  4  5  1  0  0  0
  1  5  1  0  0  0
M  END
$$$$