ref
  copyright 2023 drugdesign.org                             0

 33 35  0  0  0  0  0  0  0  0999 V2000
   -8.5759   -0.9746    0.4833 C   0  0
   -8.7525    0.3442    0.5351 C   0  0
   -7.4371    0.9554    0.4778 C   0  0
   -6.4853    0.0332    0.3933 C   0  0
   -7.1156   -1.2172    0.3884 N   0  0
   -9.7918   -1.8802    0.5305 C   0  0
  -10.2668   -2.3592   -0.6872 C   0  0
  -11.3766   -3.1946   -0.7449 C   0  0
  -12.0301   -3.5635    0.4239 C   0  0
  -11.5665   -3.0920    1.6450 C   0  0
  -10.4559   -2.2574    1.6912 C   0  0
   -6.3026   -2.4132    0.2943 C   0  0
   -6.5987   -3.5128   -0.5009 C   0  0
   -5.7623   -4.6224   -0.5343 C   0  0
   -4.6072   -4.6442    0.2362 C   0  0
   -4.2976   -3.5520    1.0361 C   0  0
   -5.1415   -2.4474    1.0615 C   0  0
   -7.1859    2.4341    0.5110 C   0  0
   -9.6275    0.8238    0.6010 H   0  0
   -5.5007    0.2007    0.3425 H   0  0
   -9.8026   -2.0983   -1.5336 H   0  0
  -11.7045   -3.5300   -1.6281 H   0  0
  -12.8286   -4.1642    0.3862 H   0  0
  -12.0315   -3.3529    2.4910 H   0  0
  -10.1292   -1.9226    2.5750 H   0  0
   -7.4283   -3.5060   -1.0593 H   0  0
   -5.9922   -5.4049   -1.1131 H   0  0
   -4.0027   -5.4406    0.2153 H   0  0
   -3.4677   -3.5600    1.5939 H   0  0
   -4.9107   -1.6650    1.6400 H   0  0
   -6.2024    2.6069    0.4590 H   0  0
   -7.5462    2.8149    1.3627 H   0  0
   -7.6416    2.8677   -0.2665 H   0  0
  1  2  2  0  0  0
  2  3  1  0  0  0
  3  4  2  0  0  0
  4  5  1  0  0  0
  5  1  1  0  0  0
  6  1  1  0  0  0
  6  7  1  0  0  0
  7  8  1  0  0  0
  8  9  1  0  0  0
  9 10  1  0  0  0
 10 11  1  0  0  0
 11  6  1  0  0  0
  5 12  1  0  0  0
 12 13  1  0  0  0
 13 14  1  0  0  0
 14 15  1  0  0  0
 15 16  1  0  0  0
 16 17  1  0  0  0
 17 12  1  0  0  0
  3 18  1  0  0  0
  2 19  1  0  0  0
  4 20  1  0  0  0
  7 21  1  0  0  0
  8 22  1  0  0  0
  9 23  1  0  0  0
 10 24  1  0  0  0
 11 25  1  0  0  0
 13 26  1  0  0  0
 14 27  1  0  0  0
 15 28  1  0  0  0
 16 29  1  0  0  0
 17 30  1  0  0  0
 18 31  1  0  0  0
 18 32  1  0  0  0
 18 33  1  0  0  0
M  END
$$$$
r3
  copyright 2023 drugdesign.org                             0

  5  5  0  0  0  0  0  0  0  0999 V2000
  -12.4951    2.6486   -0.6576 C   0  0
  -11.8350    0.9597   -1.9569 C   0  0
  -12.7494   -0.0515   -1.7558 C   0  0
  -13.1900    0.0375   -0.8896 C   0  0
  -13.0200    1.6922    0.1515 C   0  0
  1  2  1  0  0  0
  2  3  1  0  0  0
  3  4  1  0  0  0
  4  5  1  0  0  0
  5  1  1  0  0  0
M  END
$$$$
r3
  copyright 2023 drugdesign.org                             0

  5  4  0  0  0  0  0  0  0  0999 V2000
   -8.8369    3.8462    1.1882 C   0  0
  -12.0653    3.1489   -0.5105 C   0  0
  -12.3409    3.0735    0.7418 C   0  0
  -10.5550    3.4085    1.8388 C   0  0
   -8.8128    3.8988    1.1766 C   0  0
  1  2  1  0  0  0
  2  3  1  0  0  0
  3  4  1  0  0  0
  4  5  1  0  0  0
M  END
$$$$
r3
  copyright 2023 drugdesign.org                             0

  5  5  0  0  0  0  0  0  0  0999 V2000
  -10.6263   -0.8341    2.3787 C   0  0
  -12.3609    0.5029    1.3545 C   0  0
  -12.7914    1.6277    0.3769 C   0  0
  -12.2371    1.1711    2.3439 C   0  0
  -11.5088   -0.1583    2.9632 C   0  0
  1  2  1  0  0  0
  2  3  1  0  0  0
  3  4  1  0  0  0
  4  5  1  0  0  0
  1  5  1  0  0  0
M  END
$$$$
mol4
  copyright 2023 drugdesign.org                             0

 34 36  0  0  0  0  0  0  0  0999 V2000
   -8.5759   -0.9746    0.4833 C   0  0
   -8.7525    0.3442    0.5351 C   0  0
   -7.4371    0.9554    0.4778 C   0  0
   -6.4853    0.0332    0.3933 C   0  0
   -7.1156   -1.2172    0.3884 N   0  0
   -9.7918   -1.8802    0.5305 C   0  0
  -10.2668   -2.3592   -0.6872 C   0  0
  -11.3766   -3.1946   -0.7449 C   0  0
  -12.0301   -3.5635    0.4239 C   0  0
  -11.5665   -3.0920    1.6450 C   0  0
  -10.4559   -2.2574    1.6912 C   0  0
   -6.3026   -2.4132    0.2943 C   0  0
   -6.5987   -3.5128   -0.5009 C   0  0
   -5.7623   -4.6224   -0.5343 C   0  0
   -4.6072   -4.6442    0.2362 C   0  0
   -4.2976   -3.5520    1.0361 C   0  0
   -5.1415   -2.4474    1.0615 C   0  0
   -7.1859    2.4341    0.5110 C   0  0
   -9.6275    0.8238    0.6010 H   0  0
   -4.9691    0.2912    0.3151 C   0  0
   -9.8026   -2.0983   -1.5336 H   0  0
  -11.7045   -3.5300   -1.6281 H   0  0
  -12.8286   -4.1642    0.3862 H   0  0
  -12.0315   -3.3529    2.4910 H   0  0
  -10.1292   -1.9226    2.5750 H   0  0
   -7.4283   -3.5060   -1.0593 H   0  0
   -5.9922   -5.4049   -1.1131 H   0  0
   -4.0027   -5.4406    0.2153 H   0  0
   -3.4677   -3.5600    1.5939 H   0  0
   -4.9107   -1.6650    1.6400 H   0  0
   -6.2024    2.6069    0.4590 H   0  0
   -7.5462    2.8149    1.3627 H   0  0
   -7.6416    2.8677   -0.2665 H   0  0
   -3.5029    0.5210    0.2351 N   0  0
  1  2  2  0  0  0
  2  3  1  0  0  0
  3  4  2  0  0  0
  4  5  1  0  0  0
  5  1  1  0  0  0
  6  1  1  0  0  0
  6  7  1  0  0  0
  7  8  1  0  0  0
  8  9  1  0  0  0
  9 10  1  0  0  0
 10 11  1  0  0  0
 11  6  1  0  0  0
  5 12  1  0  0  0
 12 13  1  0  0  0
 13 14  1  0  0  0
 14 15  1  0  0  0
 15 16  1  0  0  0
 16 17  1  0  0  0
 17 12  1  0  0  0
  3 18  1  0  0  0
  2 19  1  0  0  0
  4 20  1  0  0  0
  7 21  1  0  0  0
  8 22  1  0  0  0
  9 23  1  0  0  0
 10 24  1  0  0  0
 11 25  1  0  0  0
 13 26  1  0  0  0
 14 27  1  0  0  0
 15 28  1  0  0  0
 16 29  1  0  0  0
 17 30  1  0  0  0
 18 31  1  0  0  0
 18 32  1  0  0  0
 18 33  1  0  0  0
 20 34  3  0  0  0
M  END
$$$$
r4
  copyright 2023 drugdesign.org                             0

  5  4  0  0  0  0  0  0  0  0999 V2000
   -3.7761    3.2050    2.8932 C   0  0
   -3.6543    3.4068    0.8372 C   0  0
   -4.6858    3.1223    0.1560 C   0  0
   -5.2012    2.3816    1.3682 C   0  0
   -3.7801    3.2364    2.9060 C   0  0
  1  2  1  0  0  0
  2  3  1  0  0  0
  3  4  1  0  0  0
  4  5  1  0  0  0
M  END
$$$$
r4
  copyright 2023 drugdesign.org                             0

  5  5  0  0  0  0  0  0  0  0999 V2000
   -3.8192   -2.2493    1.0251 C   0  0
   -1.8960    0.0102    0.8814 C   0  0
   -2.6908    0.7608   -1.0775 C   0  0
   -3.3306   -1.2226   -1.2822 C   0  0
   -2.6019   -0.9324    0.1309 C   0  0
  1  2  1  0  0  0
  2  3  1  0  0  0
  3  4  1  0  0  0
  4  5  1  0  0  0
  1  5  1  0  0  0
M  END
$$$$
r4
  copyright 2023 drugdesign.org                             0

  5  5  0  0  0  0  0  0  0  0999 V2000
   -3.7190    3.4435    0.2485 C   0  0
   -2.5866    1.2174   -0.6962 C   0  0
   -3.9977    1.0754   -2.7630 C   0  0
   -5.1415    2.4166   -1.6325 C   0  0
   -3.9625    2.5979   -0.9416 C   0  0
  1  2  1  0  0  0
  2  3  1  0  0  0
  3  4  1  0  0  0
  4  5  1  0  0  0
  1  5  1  0  0  0
M  END
$$$$
mol1
  copyright 2023 drugdesign.org                             0

 33 35  0  0  0  0  0  0  0  0999 V2000
   -8.5759   -0.9746    0.4833 C   0  0
   -8.7525    0.3442    0.5351 C   0  0
   -7.4371    0.9554    0.4778 C   0  0
   -6.4853    0.0332    0.3933 C   0  0
   -7.1156   -1.2172    0.3884 N   0  0
   -9.7918   -1.8802    0.5305 C   0  0
  -10.2668   -2.3592   -0.6872 C   0  0
  -11.3766   -3.1946   -0.7449 C   0  0
  -12.0301   -3.5635    0.4239 C   0  0
  -11.5665   -3.0920    1.6450 C   0  0
  -10.4559   -2.2574    1.6912 C   0  0
   -6.3026   -2.4132    0.2943 C   0  0
   -6.5987   -3.5128   -0.5009 C   0  0
   -5.7623   -4.6224   -0.5343 C   0  0
   -4.6072   -4.6442    0.2362 C   0  0
   -4.2976   -3.5520    1.0361 C   0  0
   -5.1415   -2.4474    1.0615 C   0  0
   -7.1859    2.4341    0.5110 C   0  0
  -10.2925    1.1883    0.6512 Cl  0  0
   -5.5007    0.2007    0.3425 H   0  0
   -9.8026   -2.0983   -1.5336 H   0  0
  -11.7045   -3.5300   -1.6281 H   0  0
  -12.8286   -4.1642    0.3862 H   0  0
  -12.0315   -3.3529    2.4910 H   0  0
  -10.1292   -1.9226    2.5750 H   0  0
   -7.4283   -3.5060   -1.0593 H   0  0
   -5.9922   -5.4049   -1.1131 H   0  0
   -4.0027   -5.4406    0.2153 H   0  0
   -3.4677   -3.5600    1.5939 H   0  0
   -4.9107   -1.6650    1.6400 H   0  0
   -6.2024    2.6069    0.4590 H   0  0
   -7.5462    2.8149    1.3627 H   0  0
   -7.6416    2.8677   -0.2665 H   0  0
  1  2  2  0  0  0
  2  3  1  0  0  0
  3  4  2  0  0  0
  4  5  1  0  0  0
  5  1  1  0  0  0
  6  1  1  0  0  0
  6  7  1  0  0  0
  7  8  1  0  0  0
  8  9  1  0  0  0
  9 10  1  0  0  0
 10 11  1  0  0  0
 11  6  1  0  0  0
  5 12  1  0  0  0
 12 13  1  0  0  0
 13 14  1  0  0  0
 14 15  1  0  0  0
 15 16  1  0  0  0
 16 17  1  0  0  0
 17 12  1  0  0  0
  3 18  1  0  0  0
  2 19  1  0  0  0
  4 20  1  0  0  0
  7 21  1  0  0  0
  8 22  1  0  0  0
  9 23  1  0  0  0
 10 24  1  0  0  0
 11 25  1  0  0  0
 13 26  1  0  0  0
 14 27  1  0  0  0
 15 28  1  0  0  0
 16 29  1  0  0  0
 17 30  1  0  0  0
 18 31  1  0  0  0
 18 32  1  0  0  0
 18 33  1  0  0  0
M  END
$$$$
mol2
  copyright 2023 drugdesign.org                             0

 36 38  0  0  0  0  0  0  0  0999 V2000
   -8.5759   -0.9746    0.4833 C   0  0
   -8.7525    0.3442    0.5351 C   0  0
   -7.4371    0.9554    0.4778 C   0  0
   -6.4853    0.0332    0.3933 C   0  0
   -7.1156   -1.2172    0.3884 N   0  0
   -9.7918   -1.8802    0.5305 C   0  0
  -10.2668   -2.3592   -0.6872 C   0  0
  -11.3766   -3.1946   -0.7449 C   0  0
  -12.0301   -3.5635    0.4239 C   0  0
  -11.5665   -3.0920    1.6450 C   0  0
  -10.4559   -2.2574    1.6912 C   0  0
   -6.3026   -2.4132    0.2943 C   0  0
   -6.5987   -3.5128   -0.5009 C   0  0
   -5.7623   -4.6224   -0.5343 C   0  0
   -4.6072   -4.6442    0.2362 C   0  0
   -4.2976   -3.5520    1.0361 C   0  0
   -5.1415   -2.4474    1.0615 C   0  0
   -7.1859    2.4341    0.5110 C   0  0
  -10.1000    1.0828    0.6366 C   0  0
   -5.5007    0.2007    0.3425 H   0  0
   -9.8026   -2.0983   -1.5336 H   0  0
  -11.7045   -3.5300   -1.6281 H   0  0
  -12.8286   -4.1642    0.3862 H   0  0
  -12.0315   -3.3529    2.4910 H   0  0
  -10.1292   -1.9226    2.5750 H   0  0
   -7.4283   -3.5060   -1.0593 H   0  0
   -5.9922   -5.4049   -1.1131 H   0  0
   -4.0027   -5.4406    0.2153 H   0  0
   -3.4677   -3.5600    1.5939 H   0  0
   -4.9107   -1.6650    1.6400 H   0  0
   -6.2024    2.6069    0.4590 H   0  0
   -7.5462    2.8149    1.3627 H   0  0
   -7.6416    2.8677   -0.2665 H   0  0
   -9.8602    2.5530    0.6690 F   0  0
  -10.8022    0.6673    1.8835 F   0  0
  -10.9433    0.7437   -0.5441 F   0  0
  1  2  2  0  0  0
  2  3  1  0  0  0
  3  4  2  0  0  0
  4  5  1  0  0  0
  5  1  1  0  0  0
  6  1  1  0  0  0
  6  7  1  0  0  0
  7  8  1  0  0  0
  8  9  1  0  0  0
  9 10  1  0  0  0
 10 11  1  0  0  0
 11  6  1  0  0  0
  5 12  1  0  0  0
 12 13  1  0  0  0
 13 14  1  0  0  0
 14 15  1  0  0  0
 15 16  1  0  0  0
 16 17  1  0  0  0
 17 12  1  0  0  0
  3 18  1  0  0  0
  2 19  1  0  0  0
  4 20  1  0  0  0
  7 21  1  0  0  0
  8 22  1  0  0  0
  9 23  1  0  0  0
 10 24  1  0  0  0
 11 25  1  0  0  0
 13 26  1  0  0  0
 14 27  1  0  0  0
 15 28  1  0  0  0
 16 29  1  0  0  0
 17 30  1  0  0  0
 18 31  1  0  0  0
 18 32  1  0  0  0
 18 33  1  0  0  0
 19 34  1  0  0  0
 19 35  1  0  0  0
 19 36  1  0  0  0
M  END
$$$$
mol3
  copyright 2023 drugdesign.org                             0

 33 35  0  0  0  0  0  0  0  0999 V2000
   -8.5759   -0.9746    0.4833 C   0  0
   -8.7525    0.3442    0.5351 C   0  0
   -7.4371    0.9554    0.4778 C   0  0
   -6.4853    0.0332    0.3933 C   0  0
   -7.1156   -1.2172    0.3884 N   0  0
   -9.7918   -1.8802    0.5305 C   0  0
  -10.2668   -2.3592   -0.6872 C   0  0
  -11.3766   -3.1946   -0.7449 C   0  0
  -12.0301   -3.5635    0.4239 C   0  0
  -11.5665   -3.0920    1.6450 C   0  0
  -10.4559   -2.2574    1.6912 C   0  0
   -6.3026   -2.4132    0.2943 C   0  0
   -6.5987   -3.5128   -0.5009 C   0  0
   -5.7623   -4.6224   -0.5343 C   0  0
   -4.6072   -4.6442    0.2362 C   0  0
   -4.2976   -3.5520    1.0361 C   0  0
   -5.1415   -2.4474    1.0615 C   0  0
   -7.1859    2.4341    0.5110 C   0  0
   -9.6275    0.8238    0.6010 H   0  0
   -4.6048    0.3532    0.2963 Br  0  0
   -9.8026   -2.0983   -1.5336 H   0  0
  -11.7045   -3.5300   -1.6281 H   0  0
  -12.8286   -4.1642    0.3862 H   0  0
  -12.0315   -3.3529    2.4910 H   0  0
  -10.1292   -1.9226    2.5750 H   0  0
   -7.4283   -3.5060   -1.0593 H   0  0
   -5.9922   -5.4049   -1.1131 H   0  0
   -4.0027   -5.4406    0.2153 H   0  0
   -3.4677   -3.5600    1.5939 H   0  0
   -4.9107   -1.6650    1.6400 H   0  0
   -6.2024    2.6069    0.4590 H   0  0
   -7.5462    2.8149    1.3627 H   0  0
   -7.6416    2.8677   -0.2665 H   0  0
  1  2  2  0  0  0
  2  3  1  0  0  0
  3  4  2  0  0  0
  4  5  1  0  0  0
  5  1  1  0  0  0
  6  1  1  0  0  0
  6  7  4  0  0  0
  7  8  4  0  0  0
  8  9  4  0  0  0
  9 10  4  0  0  0
 10 11  4  0  0  0
 11  6  4  0  0  0
  5 12  1  0  0  0
 12 13  4  0  0  0
 13 14  4  0  0  0
 14 15  4  0  0  0
 15 16  4  0  0  0
 16 17  4  0  0  0
 17 12  4  0  0  0
  3 18  1  0  0  0
  2 19  1  0  0  0
  4 20  1  0  0  0
  7 21  1  0  0  0
  8 22  1  0  0  0
  9 23  1  0  0  0
 10 24  1  0  0  0
 11 25  1  0  0  0
 13 26  1  0  0  0
 14 27  1  0  0  0
 15 28  1  0  0  0
 16 29  1  0  0  0
 17 30  1  0  0  0
 18 31  1  0  0  0
 18 32  1  0  0  0
 18 33  1  0  0  0
M  END
$$$$