phenyl_4_imidazole
  DSViewer          3D                             0

 19 20 19  0  0  0  0  0  0  0999 V2000
   48.7280   45.9310   12.9420 L   0  0
   48.9310   46.3320   11.6200 L   0  0
   47.8430   46.2770   11.0220 L   0  0
   46.8900   45.8360   11.8300 L   0  0
   47.4330   45.5820   13.0400 L   0  0
   46.8080   45.0660   14.3170 L   0  0
   47.3370   43.9030   14.9040 L   0  0
   46.8150   43.4730   16.1540 L   0  0
   45.8500   44.2560   16.7780 L   0  0
   45.2880   45.3700   16.1590 L   0  0
   45.8600   45.7890   14.9510 L   0  0
   49.8036   46.6153   11.2221 L   0  0
   45.9286   45.7119   11.5846 L   0  0
   48.0656   43.3890   14.4513 L   0  0
   47.1351   42.6248   16.5761 L   0  0
   45.5501   44.0116   17.7001 L   0  0
   44.5084   45.8508   16.5604 L   0  0
   45.5566   46.6511   14.5451 L   0  0
   49.4110   45.9079   13.6720 L   0  0
  1  2  1  0  0  0
  1  5  1  0  0  0
  2  3  1  0  0  0
  3  4  1  0  0  0
  4  5  1  0  0  0
  5  6  1  0  0  0
  6  7  1  0  0  0
  6 11  1  0  0  0
  7  8  1  0  0  0
  8  9  1  0  0  0
  9 10  1  0  0  0
 10 11  1  0  0  0
  2 12  1  0  0  0
  4 13  1  0  0  0
  7 14  1  0  0  0
  8 15  1  0  0  0
  9 16  1  0  0  0
 10 17  1  0  0  0
 11 18  1  0  0  0
  1 19  1  0  0  0
  1 F    1   7
  2 F    1   6
  3 F    1   7
  4 F    1   6
  5 F    1   6
  6 F    1   6
  7 F    1   6
  8 F    1   6
  9 F    1   6
 10 F    1   6
 11 F    1   6
 12 F    1   1
 13 F    1   1
 14 F    1   1
 15 F    1   1
 16 F    1   1
 17 F    1   1
 18 F    1   1
 19 F    1   1
M  ALS   1  1 F N   
M  ALS   2  1 F C   
M  ALS   3  1 F N   
M  ALS   4  1 F C   
M  ALS   5  1 F C   
M  ALS   6  1 F C   
M  ALS   7  1 F C   
M  ALS   8  1 F C   
M  ALS   9  1 F C   
M  ALS  10  1 F C   
M  ALS  11  1 F C   
M  ALS  12  1 F H   
M  ALS  13  1 F H   
M  ALS  14  1 F H   
M  ALS  15  1 F H   
M  ALS  16  1 F H   
M  ALS  17  1 F H   
M  ALS  18  1 F H   
M  ALS  19  1 F H   
M  END
$$$$
