phenyl_1_imidazole
  DSViewer          3D                             0

 16 17  0  0  0  0  0  0  0  0999 V2000
   48.6071   45.8562   12.7744 C   0  0
   48.8101   46.2572   11.4524 C   0  0
   47.7220   46.2022   10.8544 N   0  0
   46.7691   45.7612   11.6624 C   0  0
   47.3120   45.5072   12.8724 N   0  0
   46.6870   44.9912   14.1494 C   0  0
   47.4954   44.8677   15.2931 C   0  0
   46.8884   44.4767   16.5173 C   0  0
   45.5098   44.2974   16.5500 C   0  0
   44.7284   44.3598   15.3987 C   0  0
   45.3533   44.7930   14.2224 C   0  0
   48.4773   45.0513   15.2463 H   0  0
   47.4413   44.3334   17.3381 H   0  0
   45.0655   44.1180   17.4277 H   0  0
   43.7613   44.1058   15.4114 H   0  0
   44.7939   44.9610   13.4107 H   0  0
  1  2  2  0  0  0
  1  5  1  0  0  0
  2  3  1  0  0  0
  3  4  2  0  0  0
  4  5  1  0  0  0
  5  6  1  0  0  0
  6  7  4  0  0  0
  6 11  4  0  0  0
  7  8  4  0  0  0
  8  9  4  0  0  0
  9 10  4  0  0  0
 10 11  4  0  0  0
  7 12  1  0  0  0
  8 13  1  0  0  0
  9 14  1  0  0  0
 10 15  1  0  0  0
 11 16  1  0  0  0
M  END
$$$$
phenyl_2_imidazole
  DSViewer          3D                             0

 19 20  0  0  0  0  0  0  0  0999 V2000
   44.4420   45.1950   16.9730 N   0  0
   44.5470   45.5920   18.3230 C   0  0
   45.7790   45.5050   18.7070 C   0  0
   46.4920   45.1070   17.6720 N   0  0
   45.6850   44.8470   16.5830 C   0  0
   46.1820   44.3260   15.2560 C   0  0
   45.2950   44.0900   14.2120 C   0  0
   45.7340   43.6690   12.9460 C   0  0
   47.0730   43.3090   12.8060 C   0  0
   47.9610   43.4660   13.8580 C   0  0
   47.5010   43.9490   15.0700 C   0  0
   43.7850   45.8945   18.8956 H   0  0
   46.1275   45.7036   19.6230 H   0  0
   44.3162   44.2238   14.3668 H   0  0
   45.1054   43.6288   12.1693 H   0  0
   47.3963   42.9335   11.9374 H   0  0
   48.9263   43.2321   13.7421 H   0  0
   48.1405   44.0282   15.8347 H   0  0
   47.4869   45.0067   17.6755 H   0  0
  1  2  1  0  0  0
  1  5  2  0  0  0
  2  3  2  0  0  0
  3  4  1  0  0  0
  4  5  1  0  0  0
  5  6  1  0  0  0
  6  7  4  0  0  0
  6 11  4  0  0  0
  7  8  4  0  0  0
  8  9  4  0  0  0
  9 10  4  0  0  0
 10 11  4  0  0  0
  2 12  1  0  0  0
  3 13  1  0  0  0
  7 14  1  0  0  0
  8 15  1  0  0  0
  9 16  1  0  0  0
 10 17  1  0  0  0
 11 18  1  0  0  0
  4 19  1  0  0  0
M  END
$$$$
cata
  DSViewer          3D                             0

 69 65 69  0  0  0  0  0  0  0999 V2000
   49.5450   45.7060   17.8760 L   0  0
   50.5450   45.7060   17.8760 L   0  0
   49.2112   46.6486   17.8760 L   0  0
   45.8720   44.3370    4.8880 L   0  0
   46.4450   45.4990    5.4860 L   0  0  2  0  0  0
   46.5450   46.7400    4.6190 L   0  0
   47.3110   46.7490    3.6440 L   0  0
   47.7890   45.1910    6.0670 L   0  0
   48.6150   46.4510    6.9500 L   0  0
   45.8606   43.5904    5.5531 L   0  0
   46.4167   44.0671    4.0940 L   0  0
   45.7820   45.7373    6.1957 L   0  0
   45.9953   47.5475    4.8330 L   0  0
   47.6719   44.4191    6.6919 L   0  0
   48.3841   44.9205    5.3102 L   0  0
   49.4945   46.1069    7.2785 L   0  0
   53.0770   49.1840   16.6880 L   0  0
   53.5350   47.8560   17.0640 L   0  0  2  0  0  0
   54.1050   46.9240   16.0380 L   0  0
   55.0770   46.1520   16.2730 L   0  0
   52.3620   47.1880   17.7920 L   0  0
   52.7380   46.0080   18.6410 L   0  0
   53.8520   45.9520   19.1960 L   0  0
   51.8780   45.1310   18.7600 L   0  0
   52.7312   49.6593   17.4970 L   0  0
   52.3459   49.1055   16.0102 L   0  0
   54.3539   48.0248   17.6125 L   0  0
   53.6970   46.9127   15.1251 L   0  0
   51.9324   47.8715   18.3821 L   0  0
   51.7043   46.8797   17.1047 L   0  0
   48.4040   43.0000   22.3210 L   0  0
   49.1720   42.1120   21.5160 L   0  0  2  0  0  0
   50.0460   41.0740   22.2240 L   0  0
   50.1330   39.8800   21.8450 L   0  0
   49.9580   43.1040   20.5740 L   0  0  2  0  0  0
   49.2570   43.0990   19.3280 L   0  0
   51.4060   43.0310   20.5910 L   0  0
   47.8847   43.6196   21.7324 L   0  0
   49.0150   43.5319   22.9074 L   0  0
   48.5784   41.4683   21.0330 L   0  0
   50.5719   41.3598   23.0251 L   0  0
   49.9441   44.0372   20.9332 L   0  0
   49.7132   43.7150   18.6859 L   0  0
   51.7817   43.7057   19.9558 L   0  0
   51.6973   42.1152   20.3145 L   0  0
   51.7390   43.2217   21.5145 L   0  0
   37.1210   43.0880   21.8140 L   0  0
   37.6310   43.6820   20.5790 L   0  0  2  0  0  0
   36.4900   44.3050   19.8000 L   0  0
   35.6140   43.5620   19.3530 L   0  0
   38.4290   42.6720   19.7690 L   0  0
   39.3220   43.1670   18.6910 L   0  0
   38.7920   43.4850   17.4400 L   0  0
   40.7000   43.3520   18.8830 L   0  0
   39.6240   43.9960   16.4300 L   0  0
   41.4990   43.8430   17.8670 L   0  0
   40.9650   44.1170   16.6350 L   0  0
   41.7940   44.6290   15.6740 L   0  0
   37.8770   42.6784   22.3244 L   0  0
   36.4483   42.3822   21.5919 L   0  0
   38.2727   44.4153   20.8037 L   0  0
   36.4489   45.2932   19.6525 L   0  0
   39.0000   42.1635   20.4135 L   0  0
   37.7711   42.0505   19.3436 L   0  0
   37.8174   43.3488   17.2620 L   0  0
   41.1095   43.1256   19.7667 L   0  0
   39.2288   44.2729   15.5541 L   0  0
   42.4728   43.9992   18.0322 L   0  0
   42.7346   44.6353   16.0134 L   0  0
  1  2  1  0  0  0
  1  3  1  0  0  0
  4  5  1  0  0  0
  5  6  1  0  0  0
  6  7  1  0  0  0
  5  8  1  0  0  0
  8  9  1  0  0  0
  4 10  1  0  0  0
  4 11  1  0  0  0
  5 12  1  0  0  0
  6 13  1  0  0  0
  8 14  1  0  0  0
  8 15  1  0  0  0
  9 16  1  0  0  0
 17 18  1  0  0  0
 18 19  1  0  0  0
 19 20  1  0  0  0
 18 21  1  0  0  0
 21 22  1  0  0  0
 22 23  1  0  0  0
 22 24  1  0  0  0
 17 25  1  0  0  0
 17 26  1  0  0  0
 18 27  1  0  0  0
 19 28  1  0  0  0
 21 29  1  0  0  0
 21 30  1  0  0  0
 31 32  1  0  0  0
 32 33  1  0  0  0
 33 34  1  0  0  0
 32 35  1  0  0  0
 35 36  1  0  0  0
 35 37  1  0  0  0
 31 38  1  0  0  0
 31 39  1  0  0  0
 32 40  1  0  0  0
 33 41  1  0  0  0
 35 42  1  0  0  0
 36 43  1  0  0  0
 37 44  1  0  0  0
 37 45  1  0  0  0
 37 46  1  0  0  0
 47 48  1  0  0  0
 48 49  1  0  0  0
 49 50  1  0  0  0
 48 51  1  0  0  0
 51 52  1  0  0  0
 52 53  1  0  0  0
 52 54  1  0  0  0
 53 55  1  0  0  0
 54 56  1  0  0  0
 55 57  1  0  0  0
 56 57  1  0  0  0
 57 58  1  0  0  0
 47 59  1  0  0  0
 47 60  1  0  0  0
 48 61  1  0  0  0
 49 62  1  0  0  0
 51 63  1  0  0  0
 51 64  1  0  0  0
 53 65  1  0  0  0
 54 66  1  0  0  0
 55 67  1  0  0  0
 56 68  1  0  0  0
 58 69  1  0  0  0
  1 F    1   8
  2 F    1   1
  3 F    1   1
  4 F    1   7
  5 F    1   6
  6 F    1   6
  7 F    1   8
  8 F    1   6
  9 F    1  16
 10 F    1   1
 11 F    1   1
 12 F    1   1
 13 F    1   1
 14 F    1   1
 15 F    1   1
 16 F    1   1
 17 F    1   7
 18 F    1   6
 19 F    1   6
 20 F    1   8
 21 F    1   6
 22 F    1   6
 23 F    1   8
 24 F    1   8
 25 F    1   1
 26 F    1   1
 27 F    1   1
 28 F    1   1
 29 F    1   1
 30 F    1   1
 31 F    1   7
 32 F    1   6
 33 F    1   6
 34 F    1   8
 35 F    1   6
 36 F    1   8
 37 F    1   6
 38 F    1   1
 39 F    1   1
 40 F    1   1
 41 F    1   1
 42 F    1   1
 43 F    1   1
 44 F    1   1
 45 F    1   1
 46 F    1   1
 47 F    1   7
 48 F    1   6
 49 F    1   6
 50 F    1   8
 51 F    1   6
 52 F    1   6
 53 F    1   6
 54 F    1   6
 55 F    1   6
 56 F    1   6
 57 F    1   6
 58 F    1   8
 59 F    1   1
 60 F    1   1
 61 F    1   1
 62 F    1   1
 63 F    1   1
 64 F    1   1
 65 F    1   1
 66 F    1   1
 67 F    1   1
 68 F    1   1
 69 F    1   1
M  ALS   1  1 F O   
M  ALS   2  1 F H   
M  ALS   3  1 F H   
M  ALS   4  1 F N   
M  ALS   5  1 F C   
M  ALS   6  1 F C   
M  ALS   7  1 F O   
M  ALS   8  1 F C   
M  ALS   9  1 F S   
M  ALS  10  1 F H   
M  ALS  11  1 F H   
M  ALS  12  1 F H   
M  ALS  13  1 F H   
M  ALS  14  1 F H   
M  ALS  15  1 F H   
M  ALS  16  1 F H   
M  ALS  17  1 F N   
M  ALS  18  1 F C   
M  ALS  19  1 F C   
M  ALS  20  1 F O   
M  ALS  21  1 F C   
M  ALS  22  1 F C   
M  ALS  23  1 F O   
M  ALS  24  1 F O   
M  ALS  25  1 F H   
M  ALS  26  1 F H   
M  ALS  27  1 F H   
M  ALS  28  1 F H   
M  ALS  29  1 F H   
M  ALS  30  1 F H   
M  ALS  31  1 F N   
M  ALS  32  1 F C   
M  ALS  33  1 F C   
M  ALS  34  1 F O   
M  ALS  35  1 F C   
M  ALS  36  1 F O   
M  ALS  37  1 F C   
M  ALS  38  1 F H   
M  ALS  39  1 F H   
M  ALS  40  1 F H   
M  ALS  41  1 F H   
M  ALS  42  1 F H   
M  ALS  43  1 F H   
M  ALS  44  1 F H   
M  ALS  45  1 F H   
M  ALS  46  1 F H   
M  ALS  47  1 F N   
M  ALS  48  1 F C   
M  ALS  49  1 F C   
M  ALS  50  1 F O   
M  ALS  51  1 F C   
M  ALS  52  1 F C   
M  ALS  53  1 F C   
M  ALS  54  1 F C   
M  ALS  55  1 F C   
M  ALS  56  1 F C   
M  ALS  57  1 F C   
M  ALS  58  1 F O   
M  ALS  59  1 F H   
M  ALS  60  1 F H   
M  ALS  61  1 F H   
M  ALS  62  1 F H   
M  ALS  63  1 F H   
M  ALS  64  1 F H   
M  ALS  65  1 F H   
M  ALS  66  1 F H   
M  ALS  67  1 F H   
M  ALS  68  1 F H   
M  ALS  69  1 F H   
M  END
$$$$
phenyl_4_imidazole
  DSViewer          3D                             0

 19 20 19  0  0  0  0  0  0  0999 V2000
   48.7280   45.9310   12.9420 L   0  0
   48.9310   46.3320   11.6200 L   0  0
   47.8430   46.2770   11.0220 L   0  0
   46.8900   45.8360   11.8300 L   0  0
   47.4330   45.5820   13.0400 L   0  0
   46.8080   45.0660   14.3170 L   0  0
   47.3370   43.9030   14.9040 L   0  0
   46.8150   43.4730   16.1540 L   0  0
   45.8500   44.2560   16.7780 L   0  0
   45.2880   45.3700   16.1590 L   0  0
   45.8600   45.7890   14.9510 L   0  0
   49.8036   46.6153   11.2221 L   0  0
   45.9286   45.7119   11.5846 L   0  0
   48.0656   43.3890   14.4513 L   0  0
   47.1351   42.6248   16.5761 L   0  0
   45.5501   44.0116   17.7001 L   0  0
   44.5084   45.8508   16.5604 L   0  0
   45.5566   46.6511   14.5451 L   0  0
   49.4110   45.9079   13.6720 L   0  0
  1  2  1  0  0  0
  1  5  1  0  0  0
  2  3  1  0  0  0
  3  4  1  0  0  0
  4  5  1  0  0  0
  5  6  1  0  0  0
  6  7  1  0  0  0
  6 11  1  0  0  0
  7  8  1  0  0  0
  8  9  1  0  0  0
  9 10  1  0  0  0
 10 11  1  0  0  0
  2 12  1  0  0  0
  4 13  1  0  0  0
  7 14  1  0  0  0
  8 15  1  0  0  0
  9 16  1  0  0  0
 10 17  1  0  0  0
 11 18  1  0  0  0
  1 19  1  0  0  0
  1 F    1   7
  2 F    1   6
  3 F    1   7
  4 F    1   6
  5 F    1   6
  6 F    1   6
  7 F    1   6
  8 F    1   6
  9 F    1   6
 10 F    1   6
 11 F    1   6
 12 F    1   1
 13 F    1   1
 14 F    1   1
 15 F    1   1
 16 F    1   1
 17 F    1   1
 18 F    1   1
 19 F    1   1
M  ALS   1  1 F N   
M  ALS   2  1 F C   
M  ALS   3  1 F N   
M  ALS   4  1 F C   
M  ALS   5  1 F C   
M  ALS   6  1 F C   
M  ALS   7  1 F C   
M  ALS   8  1 F C   
M  ALS   9  1 F C   
M  ALS  10  1 F C   
M  ALS  11  1 F C   
M  ALS  12  1 F H   
M  ALS  13  1 F H   
M  ALS  14  1 F H   
M  ALS  15  1 F H   
M  ALS  16  1 F H   
M  ALS  17  1 F H   
M  ALS  18  1 F H   
M  ALS  19  1 F H   
M  END
$$$$
Heme
  DSViewer          3D                             0

 75 82 75  0  0  0  0  0  0  0999 V2000
   48.3260   46.2830    9.0060 L   0  0
   45.2660   44.8380    8.9720 L   0  0
   49.7440   43.1000    9.5150 L   0  0
   51.4490   47.6140    9.4340 L   0  0
   46.9830   49.2850    9.7460 L   0  0
   47.6330   44.3230    9.2360 L   0  0
   46.3290   43.9550    9.1050 L   0  0
   46.2450   42.4980    9.1030 L   0  0
   47.4950   42.0230    9.2390 L   0  0
   48.3660   43.1750    9.3930 L   0  0
   47.9590   40.5670    9.2850 L   0  0
   44.9310   41.7230    8.9200 L   0  0
   44.3080   41.1840   10.2490 L   0  0
   43.0370   40.4450   10.0220 L   0  0
   42.7550   40.0020    8.8360 L   0  0
   42.3520   40.3630   11.0740 L   0  0
   50.1740   45.5380    9.4980 L   0  0
   50.5810   44.1830    9.4700 L   0  0
   52.0350   44.1070    9.4690 L   0  0
   52.5070   45.3660    9.4900 L   0  0
   51.3780   46.2320    9.4500 L   0  0
   52.8370   42.7980    9.5130 L   0  0
   53.9520   45.8370    9.5010 L   0  0
   55.0540   45.1940    9.3700 L   0  0
   49.0800   48.0990    9.6630 L   0  0
   50.3960   48.4940    9.5400 L   0  0
   50.4980   49.9360    9.4900 L   0  0
   49.2450   50.3940    9.6060 L   0  0
   48.3390   49.2670    9.7710 L   0  0
   51.8330   50.7020    9.3910 L   0  0
   48.7320   51.8750    9.5950 L   0  0
   48.3610   52.3920   10.7550 L   0  0
   46.4930   46.9000    9.2830 L   0  0
   46.1020   48.2560    9.4250 L   0  0
   44.6880   48.3560    9.2270 L   0  0
   44.1950   47.1230    9.0320 L   0  0
   45.2900   46.2060    9.1080 L   0  0
   43.9480   49.7220    9.2580 L   0  0
   42.7310   46.7040    8.8250 L   0  0
   42.1610   46.5590    7.4230 L   0  0
   40.7160   46.1030    7.3080 L   0  0
   40.1880   46.1820    6.1650 L   0  0
   40.1990   45.6460    8.3320 L   0  0
   44.3793   44.4316    8.7515 L   0  0
   50.1538   42.1970    9.6442 L   0  0
   52.3598   48.0148    9.3352 L   0  0
   46.5581   50.1563    9.9917 L   0  0
   48.9525   40.5366    9.3943 L   0  0
   47.7036   40.1082    8.4339 L   0  0
   47.5248   40.1025   10.0569 L   0  0
   44.2663   42.3324    8.4878 L   0  0
   45.1089   40.9434    8.3195 L   0  0
   44.9642   40.5675   10.6841 L   0  0
   44.1251   41.9583   10.8548 L   0  0
   41.5078   39.8617   10.8844 L   0  0
   53.8152   43.0054    9.5032 L   0  0
   52.6073   42.2389    8.7163 L   0  0
   52.6114   42.2962   10.3481 L   0  0
   54.0631   46.8219    9.6338 L   0  0
   55.9255   45.6831    9.4052 L   0  0
   55.0417   44.2036    9.2327 L   0  0
   51.6529   51.6854    9.3710 L   0  0
   52.3104   50.4340    8.5541 L   0  0
   52.4025   50.4840   10.1836 L   0  0
   48.6871   52.4057    8.7486 L   0  0
   48.0266   53.3334   10.7988 L   0  0
   48.4150   51.8414   11.5880 L   0  0
   42.9715   49.5763    9.0993 L   0  0
   44.3161   50.3173    8.5438 L   0  0
   44.0794   50.1526   10.1509 L   0  0
   42.6212   45.8163    9.2721 L   0  0
   42.1690   47.3856    9.2936 L   0  0
   42.2323   47.4502    6.9751 L   0  0
   42.7265   45.8941    6.9351 L   0  0
   39.2545   45.3804    8.1391 L   0  0
  1  6  1  0  0  0
  2  7  1  0  0  0
  2 37  1  0  0  0
  3 10  1  0  0  0
  3 18  1  0  0  0
  4 21  1  0  0  0
  4 26  1  0  0  0
  5 29  1  0  0  0
  5 34  1  0  0  0
  6  7  1  0  0  0
  6 10  1  0  0  0
  7  8  1  0  0  0
  8  9  1  0  0  0
  8 12  1  0  0  0
  9 10  1  0  0  0
  9 11  1  0  0  0
 12 13  1  0  0  0
 13 14  1  0  0  0
 14 15  1  0  0  0
 14 16  1  0  0  0
 18 17  1  0  0  0
 18 19  1  0  0  0
 19 20  1  0  0  0
 19 22  1  0  0  0
 20 21  1  0  0  0
 20 23  1  0  0  0
 21 17  1  0  0  0
 23 24  1  0  0  0
 25  1  1  0  0  0
 25 26  1  0  0  0
 25 29  1  0  0  0
 26 27  1  0  0  0
 27 28  1  0  0  0
 27 30  1  0  0  0
 28 29  1  0  0  0
 28 31  1  0  0  0
 31 32  1  0  0  0
 34 33  1  0  0  0
 34 35  1  0  0  0
 35 36  1  0  0  0
 35 38  1  0  0  0
 36 37  1  0  0  0
 36 39  1  0  0  0
 37 33  1  0  0  0
 39 40  1  0  0  0
 40 41  1  0  0  0
 41 42  1  0  0  0
 41 43  1  0  0  0
  2 44  1  0  0  0
  3 45  1  0  0  0
  4 46  1  0  0  0
  5 47  1  0  0  0
 11 48  1  0  0  0
 11 49  1  0  0  0
 11 50  1  0  0  0
 12 51  1  0  0  0
 12 52  1  0  0  0
 13 53  1  0  0  0
 13 54  1  0  0  0
 16 55  1  0  0  0
 22 56  1  0  0  0
 22 57  1  0  0  0
 22 58  1  0  0  0
 23 59  1  0  0  0
 24 60  1  0  0  0
 24 61  1  0  0  0
 30 62  1  0  0  0
 30 63  1  0  0  0
 30 64  1  0  0  0
 31 65  1  0  0  0
 32 66  1  0  0  0
 32 67  1  0  0  0
 38 68  1  0  0  0
 38 69  1  0  0  0
 38 70  1  0  0  0
 39 71  1  0  0  0
 39 72  1  0  0  0
 40 73  1  0  0  0
 40 74  1  0  0  0
 43 75  1  0  0  0
 33  1  1  0  0  0
 17  1  1  0  0  0
  1 F    1   1
  2 F    1   6
  3 F    1   6
  4 F    1   6
  5 F    1   6
  6 F    1   7
  7 F    1   6
  8 F    1   6
  9 F    1   6
 10 F    1   6
 11 F    1   6
 12 F    1   6
 13 F    1   6
 14 F    1   6
 15 F    1   8
 16 F    1   8
 17 F    1   7
 18 F    1   6
 19 F    1   6
 20 F    1   6
 21 F    1   6
 22 F    1   6
 23 F    1   6
 24 F    1   6
 25 F    1   7
 26 F    1   6
 27 F    1   6
 28 F    1   6
 29 F    1   6
 30 F    1   6
 31 F    1   6
 32 F    1   6
 33 F    1   7
 34 F    1   6
 35 F    1   6
 36 F    1   6
 37 F    1   6
 38 F    1   6
 39 F    1   6
 40 F    1   6
 41 F    1   6
 42 F    1   8
 43 F    1   8
 44 F    1   1
 45 F    1   1
 46 F    1   1
 47 F    1   1
 48 F    1   1
 49 F    1   1
 50 F    1   1
 51 F    1   1
 52 F    1   1
 53 F    1   1
 54 F    1   1
 55 F    1   1
 56 F    1   1
 57 F    1   1
 58 F    1   1
 59 F    1   1
 60 F    1   1
 61 F    1   1
 62 F    1   1
 63 F    1   1
 64 F    1   1
 65 F    1   1
 66 F    1   1
 67 F    1   1
 68 F    1   1
 69 F    1   1
 70 F    1   1
 71 F    1   1
 72 F    1   1
 73 F    1   1
 74 F    1   1
 75 F    1   1
M  ALS   1  1 F H   
M  ALS   2  1 F C   
M  ALS   3  1 F C   
M  ALS   4  1 F C   
M  ALS   5  1 F C   
M  ALS   6  1 F N   
M  ALS   7  1 F C   
M  ALS   8  1 F C   
M  ALS   9  1 F C   
M  ALS  10  1 F C   
M  ALS  11  1 F C   
M  ALS  12  1 F C   
M  ALS  13  1 F C   
M  ALS  14  1 F C   
M  ALS  15  1 F O   
M  ALS  16  1 F O   
M  ALS  17  1 F N   
M  ALS  18  1 F C   
M  ALS  19  1 F C   
M  ALS  20  1 F C   
M  ALS  21  1 F C   
M  ALS  22  1 F C   
M  ALS  23  1 F C   
M  ALS  24  1 F C   
M  ALS  25  1 F N   
M  ALS  26  1 F C   
M  ALS  27  1 F C   
M  ALS  28  1 F C   
M  ALS  29  1 F C   
M  ALS  30  1 F C   
M  ALS  31  1 F C   
M  ALS  32  1 F C   
M  ALS  33  1 F N   
M  ALS  34  1 F C   
M  ALS  35  1 F C   
M  ALS  36  1 F C   
M  ALS  37  1 F C   
M  ALS  38  1 F C   
M  ALS  39  1 F C   
M  ALS  40  1 F C   
M  ALS  41  1 F C   
M  ALS  42  1 F O   
M  ALS  43  1 F O   
M  ALS  44  1 F H   
M  ALS  45  1 F H   
M  ALS  46  1 F H   
M  ALS  47  1 F H   
M  ALS  48  1 F H   
M  ALS  49  1 F H   
M  ALS  50  1 F H   
M  ALS  51  1 F H   
M  ALS  52  1 F H   
M  ALS  53  1 F H   
M  ALS  54  1 F H   
M  ALS  55  1 F H   
M  ALS  56  1 F H   
M  ALS  57  1 F H   
M  ALS  58  1 F H   
M  ALS  59  1 F H   
M  ALS  60  1 F H   
M  ALS  61  1 F H   
M  ALS  62  1 F H   
M  ALS  63  1 F H   
M  ALS  64  1 F H   
M  ALS  65  1 F H   
M  ALS  66  1 F H   
M  ALS  67  1 F H   
M  ALS  68  1 F H   
M  ALS  69  1 F H   
M  ALS  70  1 F H   
M  ALS  71  1 F H   
M  ALS  72  1 F H   
M  ALS  73  1 F H   
M  ALS  74  1 F H   
M  ALS  75  1 F H   
M  END
$$$$
