cata
  DSViewer          3D                             0

 69 65 69  0  0  0  0  0  0  0999 V2000
   49.5450   45.7060   17.8760 L   0  0
   50.5450   45.7060   17.8760 L   0  0
   49.2112   46.6486   17.8760 L   0  0
   45.8720   44.3370    4.8880 L   0  0
   46.4450   45.4990    5.4860 L   0  0  2  0  0  0
   46.5450   46.7400    4.6190 L   0  0
   47.3110   46.7490    3.6440 L   0  0
   47.7890   45.1910    6.0670 L   0  0
   48.6150   46.4510    6.9500 L   0  0
   45.8606   43.5904    5.5531 L   0  0
   46.4167   44.0671    4.0940 L   0  0
   45.7820   45.7373    6.1957 L   0  0
   45.9953   47.5475    4.8330 L   0  0
   47.6719   44.4191    6.6919 L   0  0
   48.3841   44.9205    5.3102 L   0  0
   49.4945   46.1069    7.2785 L   0  0
   53.0770   49.1840   16.6880 L   0  0
   53.5350   47.8560   17.0640 L   0  0  2  0  0  0
   54.1050   46.9240   16.0380 L   0  0
   55.0770   46.1520   16.2730 L   0  0
   52.3620   47.1880   17.7920 L   0  0
   52.7380   46.0080   18.6410 L   0  0
   53.8520   45.9520   19.1960 L   0  0
   51.8780   45.1310   18.7600 L   0  0
   52.7312   49.6593   17.4970 L   0  0
   52.3459   49.1055   16.0102 L   0  0
   54.3539   48.0248   17.6125 L   0  0
   53.6970   46.9127   15.1251 L   0  0
   51.9324   47.8715   18.3821 L   0  0
   51.7043   46.8797   17.1047 L   0  0
   48.4040   43.0000   22.3210 L   0  0
   49.1720   42.1120   21.5160 L   0  0  2  0  0  0
   50.0460   41.0740   22.2240 L   0  0
   50.1330   39.8800   21.8450 L   0  0
   49.9580   43.1040   20.5740 L   0  0  2  0  0  0
   49.2570   43.0990   19.3280 L   0  0
   51.4060   43.0310   20.5910 L   0  0
   47.8847   43.6196   21.7324 L   0  0
   49.0150   43.5319   22.9074 L   0  0
   48.5784   41.4683   21.0330 L   0  0
   50.5719   41.3598   23.0251 L   0  0
   49.9441   44.0372   20.9332 L   0  0
   49.7132   43.7150   18.6859 L   0  0
   51.7817   43.7057   19.9558 L   0  0
   51.6973   42.1152   20.3145 L   0  0
   51.7390   43.2217   21.5145 L   0  0
   37.1210   43.0880   21.8140 L   0  0
   37.6310   43.6820   20.5790 L   0  0  2  0  0  0
   36.4900   44.3050   19.8000 L   0  0
   35.6140   43.5620   19.3530 L   0  0
   38.4290   42.6720   19.7690 L   0  0
   39.3220   43.1670   18.6910 L   0  0
   38.7920   43.4850   17.4400 L   0  0
   40.7000   43.3520   18.8830 L   0  0
   39.6240   43.9960   16.4300 L   0  0
   41.4990   43.8430   17.8670 L   0  0
   40.9650   44.1170   16.6350 L   0  0
   41.7940   44.6290   15.6740 L   0  0
   37.8770   42.6784   22.3244 L   0  0
   36.4483   42.3822   21.5919 L   0  0
   38.2727   44.4153   20.8037 L   0  0
   36.4489   45.2932   19.6525 L   0  0
   39.0000   42.1635   20.4135 L   0  0
   37.7711   42.0505   19.3436 L   0  0
   37.8174   43.3488   17.2620 L   0  0
   41.1095   43.1256   19.7667 L   0  0
   39.2288   44.2729   15.5541 L   0  0
   42.4728   43.9992   18.0322 L   0  0
   42.7346   44.6353   16.0134 L   0  0
  1  2  1  0  0  0
  1  3  1  0  0  0
  4  5  1  0  0  0
  5  6  1  0  0  0
  6  7  1  0  0  0
  5  8  1  0  0  0
  8  9  1  0  0  0
  4 10  1  0  0  0
  4 11  1  0  0  0
  5 12  1  0  0  0
  6 13  1  0  0  0
  8 14  1  0  0  0
  8 15  1  0  0  0
  9 16  1  0  0  0
 17 18  1  0  0  0
 18 19  1  0  0  0
 19 20  1  0  0  0
 18 21  1  0  0  0
 21 22  1  0  0  0
 22 23  1  0  0  0
 22 24  1  0  0  0
 17 25  1  0  0  0
 17 26  1  0  0  0
 18 27  1  0  0  0
 19 28  1  0  0  0
 21 29  1  0  0  0
 21 30  1  0  0  0
 31 32  1  0  0  0
 32 33  1  0  0  0
 33 34  1  0  0  0
 32 35  1  0  0  0
 35 36  1  0  0  0
 35 37  1  0  0  0
 31 38  1  0  0  0
 31 39  1  0  0  0
 32 40  1  0  0  0
 33 41  1  0  0  0
 35 42  1  0  0  0
 36 43  1  0  0  0
 37 44  1  0  0  0
 37 45  1  0  0  0
 37 46  1  0  0  0
 47 48  1  0  0  0
 48 49  1  0  0  0
 49 50  1  0  0  0
 48 51  1  0  0  0
 51 52  1  0  0  0
 52 53  1  0  0  0
 52 54  1  0  0  0
 53 55  1  0  0  0
 54 56  1  0  0  0
 55 57  1  0  0  0
 56 57  1  0  0  0
 57 58  1  0  0  0
 47 59  1  0  0  0
 47 60  1  0  0  0
 48 61  1  0  0  0
 49 62  1  0  0  0
 51 63  1  0  0  0
 51 64  1  0  0  0
 53 65  1  0  0  0
 54 66  1  0  0  0
 55 67  1  0  0  0
 56 68  1  0  0  0
 58 69  1  0  0  0
  1 F    1   8
  2 F    1   1
  3 F    1   1
  4 F    1   7
  5 F    1   6
  6 F    1   6
  7 F    1   8
  8 F    1   6
  9 F    1  16
 10 F    1   1
 11 F    1   1
 12 F    1   1
 13 F    1   1
 14 F    1   1
 15 F    1   1
 16 F    1   1
 17 F    1   7
 18 F    1   6
 19 F    1   6
 20 F    1   8
 21 F    1   6
 22 F    1   6
 23 F    1   8
 24 F    1   8
 25 F    1   1
 26 F    1   1
 27 F    1   1
 28 F    1   1
 29 F    1   1
 30 F    1   1
 31 F    1   7
 32 F    1   6
 33 F    1   6
 34 F    1   8
 35 F    1   6
 36 F    1   8
 37 F    1   6
 38 F    1   1
 39 F    1   1
 40 F    1   1
 41 F    1   1
 42 F    1   1
 43 F    1   1
 44 F    1   1
 45 F    1   1
 46 F    1   1
 47 F    1   7
 48 F    1   6
 49 F    1   6
 50 F    1   8
 51 F    1   6
 52 F    1   6
 53 F    1   6
 54 F    1   6
 55 F    1   6
 56 F    1   6
 57 F    1   6
 58 F    1   8
 59 F    1   1
 60 F    1   1
 61 F    1   1
 62 F    1   1
 63 F    1   1
 64 F    1   1
 65 F    1   1
 66 F    1   1
 67 F    1   1
 68 F    1   1
 69 F    1   1
M  ALS   1  1 F O   
M  ALS   2  1 F H   
M  ALS   3  1 F H   
M  ALS   4  1 F N   
M  ALS   5  1 F C   
M  ALS   6  1 F C   
M  ALS   7  1 F O   
M  ALS   8  1 F C   
M  ALS   9  1 F S   
M  ALS  10  1 F H   
M  ALS  11  1 F H   
M  ALS  12  1 F H   
M  ALS  13  1 F H   
M  ALS  14  1 F H   
M  ALS  15  1 F H   
M  ALS  16  1 F H   
M  ALS  17  1 F N   
M  ALS  18  1 F C   
M  ALS  19  1 F C   
M  ALS  20  1 F O   
M  ALS  21  1 F C   
M  ALS  22  1 F C   
M  ALS  23  1 F O   
M  ALS  24  1 F O   
M  ALS  25  1 F H   
M  ALS  26  1 F H   
M  ALS  27  1 F H   
M  ALS  28  1 F H   
M  ALS  29  1 F H   
M  ALS  30  1 F H   
M  ALS  31  1 F N   
M  ALS  32  1 F C   
M  ALS  33  1 F C   
M  ALS  34  1 F O   
M  ALS  35  1 F C   
M  ALS  36  1 F O   
M  ALS  37  1 F C   
M  ALS  38  1 F H   
M  ALS  39  1 F H   
M  ALS  40  1 F H   
M  ALS  41  1 F H   
M  ALS  42  1 F H   
M  ALS  43  1 F H   
M  ALS  44  1 F H   
M  ALS  45  1 F H   
M  ALS  46  1 F H   
M  ALS  47  1 F N   
M  ALS  48  1 F C   
M  ALS  49  1 F C   
M  ALS  50  1 F O   
M  ALS  51  1 F C   
M  ALS  52  1 F C   
M  ALS  53  1 F C   
M  ALS  54  1 F C   
M  ALS  55  1 F C   
M  ALS  56  1 F C   
M  ALS  57  1 F C   
M  ALS  58  1 F O   
M  ALS  59  1 F H   
M  ALS  60  1 F H   
M  ALS  61  1 F H   
M  ALS  62  1 F H   
M  ALS  63  1 F H   
M  ALS  64  1 F H   
M  ALS  65  1 F H   
M  ALS  66  1 F H   
M  ALS  67  1 F H   
M  ALS  68  1 F H   
M  ALS  69  1 F H   
M  END
$$$$