#	Copyright: drugdesign.org
#	Creation time:	2023-12-31T19:08:04Z

@<TRIPOS>MOLECULE
Mol-8
   31    34     0 0 0
SMALL
USER_CHARGES


@<TRIPOS>ATOM
      1 O1           -4.212300    1.247700   -0.839900 O.2      1 SUBUNIT   -0.2664
      2 C2           -3.861400    0.300800   -1.511600 C.2      1 SUBUNIT    0.2627
      3 C3           -2.470100   -0.314800   -1.622200 C.3      1 SUBUNIT    0.1445
      4 O4           -4.752600   -0.343900   -2.282500 O.3      1 SUBUNIT   -0.3315
      5 H5           -5.528600    0.204000   -2.049800 H        1 SUBUNIT    0.2214
      6 N6            1.168700   -1.385500    2.222200 N.3      1 SUBUNIT   -0.3186
      7 H7            1.325200   -2.039000    2.902800 H        1 SUBUNIT    0.1194
      8 H8            0.482500   -0.785800    2.510400 H        1 SUBUNIT    0.1194
      9 C9            2.470300    3.098800   -0.581600 C.2      1 SUBUNIT    0.0369
     10 C10           3.107900    2.080600   -1.310800 C.2      1 SUBUNIT    0.0846
     11 C11           4.489300    1.863400   -1.175900 C.2      1 SUBUNIT    0.0369
     12 C12           5.246600    2.665000   -0.306600 C.2      1 SUBUNIT    0.0417
     13 C13           4.618200    3.682200    0.425800 C.2      1 SUBUNIT    0.1229
     14 C14           3.237000    3.897000    0.287600 C.2      1 SUBUNIT    0.0417
     15 O15           2.368300    1.280900   -2.173000 O.3      1 SUBUNIT   -0.2873
     16 C16           2.816000   -1.128500   -2.009800 C.2      1 SUBUNIT    0.0635
     17 C17           2.334400   -2.137100   -1.072200 C.2      1 SUBUNIT    0.0363
     18 C18           1.521600   -1.516300   -0.207100 C.2      1 SUBUNIT    0.0832
     19 O19           1.402400   -0.121900   -0.482600 O.3      1 SUBUNIT   -0.2898
     20 C20           2.245600    0.012800   -1.620500 C.2      1 SUBUNIT    0.1926
     21 C21           0.741300   -2.060400    0.975300 C.3      1 SUBUNIT    0.1363
     22 C22          -2.867400   -2.085500    1.560200 C.2      1 SUBUNIT   -0.0105
     23 C23          -4.025900   -2.456600    2.388400 C.2      1 SUBUNIT    0.0164
     24 C24          -5.163600   -2.032400    1.812800 C.2      1 SUBUNIT    0.0466
     25 S25          -4.980300   -1.170900    0.267700 S.3      1 SUBUNIT   -0.0971
     26 C26          -3.247500   -1.400100    0.410200 C.2      1 SUBUNIT    0.0226
     27 C27          -2.290300   -0.957100   -0.514500 C.2      1 SUBUNIT   -0.0232
     28 C28          -0.929600   -1.218700   -0.258800 C.2      1 SUBUNIT    0.0109
     29 C29          -0.544600   -1.914000    0.908000 C.2      1 SUBUNIT   -0.0237
     30 C30          -1.517300   -2.353400    1.828500 C.2      1 SUBUNIT    0.0147
     31 F31           5.357900    4.471000    1.281400 F        1 SUBUNIT   -0.2070
@<TRIPOS>BOND
     1    1    2 2
     2    2    3 1
     3    2    4 1
     4    3   27 1
     5    4    5 1
     6    6    7 1
     7    6    8 1
     8    6   21 1
     9    9   10 2
    10    9   14 1
    11   10   11 1
    12   10   15 1
    13   11   12 2
    14   12   13 1
    15   13   14 2
    16   13   31 1
    17   15   20 1
    18   16   17 1
    19   16   20 2
    20   17   18 2
    21   18   19 1
    22   18   21 1
    23   19   20 1
    24   21   29 1
    25   22   23 1
    26   22   26 2
    27   22   30 1
    28   23   24 2
    29   24   25 1
    30   25   26 1
    31   26   27 1
    32   27   28 2
    33   28   29 1
    34   29   30 2
@<SCITEGIC>ATOM_PROPERTY
Formal Charge
SciTegic.value.StringValue
1 0
2 0
3 0
4 0
5 0
6 0
7 0
8 0
9 0
10 0
11 0
12 0
13 0
14 0
15 0
16 0
17 0
18 0
19 0
20 0
21 0
22 0
23 0
24 0
25 0
26 0
27 0
28 0
29 0
30 0
31 0

@<SCITEGIC>ATOM_PROPERTY
pdb_tempFactor
SciTegic.value.DoubleValue
1 0.00
2 0.00
3 0.00
4 0.00
5 0.00
6 0.00
7 0.00
8 0.00
9 0.00
10 0.00
11 0.00
12 0.00
13 0.00
14 0.00
15 0.00
16 0.00
17 0.00
18 0.00
19 0.00
20 0.00
21 0.00
22 0.00
23 0.00
24 0.00
25 0.00
26 0.00
27 0.00
28 0.00
29 0.00
30 0.00
31 0.00

@<SCITEGIC>ATOM_PROPERTY
pdb_occupancy
SciTegic.value.DoubleValue
1 1.00
2 1.00
3 1.00
4 1.00
5 1.00
6 1.00
7 1.00
8 1.00
9 1.00
10 1.00
11 1.00
12 1.00
13 1.00
14 1.00
15 1.00
16 1.00
17 1.00
18 1.00
19 1.00
20 1.00
21 1.00
22 1.00
23 1.00
24 1.00
25 1.00
26 1.00
27 1.00
28 1.00
29 1.00
30 1.00
31 1.00

#	Copyright: drugdesign.org
#	Creation time:	2023-12-31T19:08:04Z

@<TRIPOS>MOLECULE
Mol13
   30    32     0 0 0
SMALL
USER_CHARGES


@<TRIPOS>ATOM
      1 O1           -4.465000    1.501600   -0.606000 O.2      1 SUBUNIT   -0.2306
      2 C2           -4.209700    0.448000   -1.149600 C.2      1 SUBUNIT    0.4026
      3 O3           -3.058600   -0.199300   -1.178500 O.3      1 SUBUNIT   -0.2880
      4 O4           -5.165900   -0.208300   -1.827400 O.3      1 SUBUNIT   -0.3082
      5 H5           -5.886500    0.432800   -1.665900 H        1 SUBUNIT    0.2239
      6 N6            0.704400   -1.187600    2.758000 N.3      1 SUBUNIT   -0.3111
      7 H7            0.812000   -1.759200    3.517600 H        1 SUBUNIT    0.1203
      8 H8            0.078500   -0.496400    2.967600 H        1 SUBUNIT    0.1203
      9 C9            2.358900    2.762100   -0.609900 C.2      1 SUBUNIT    0.0231
     10 C10           2.892500    1.604900   -1.202000 C.2      1 SUBUNIT    0.0199
     11 C11           4.250900    1.283600   -1.043800 C.2      1 SUBUNIT    0.0231
     12 C12           5.089200    2.119500   -0.288500 C.2      1 SUBUNIT    0.0406
     13 C13           4.564700    3.275200    0.306900 C.2      1 SUBUNIT    0.1229
     14 C14           3.206200    3.593800    0.145800 C.2      1 SUBUNIT    0.0406
     15 N15           2.072100    0.770200   -1.950500 N.pl3    1 SUBUNIT   -0.2493
     16 C16           2.305900   -1.628700   -1.476000 C.2      1 SUBUNIT    0.0341
     17 C17           1.750100   -2.460400   -0.413500 C.2      1 SUBUNIT    0.0213
     18 C18           1.008600   -1.662400    0.365500 C.2      1 SUBUNIT    0.0287
     19 N19           1.010000   -0.310100   -0.089000 N.pl3    1 SUBUNIT   -0.2503
     20 C20           1.845100   -0.399800   -1.237200 C.2      1 SUBUNIT    0.0662
     21 C21           0.200400   -1.976800    1.611000 C.3      1 SUBUNIT    0.1639
     22 C22          -1.953500   -2.944900    1.674800 C.3      1 SUBUNIT    0.0864
     23 C23          -3.460200   -2.629200    1.573300 C.3      1 SUBUNIT    0.0183
     24 C24          -3.771900   -1.976000    0.212700 C.3      1 SUBUNIT    0.0353
     25 C25          -2.898200   -0.718000    0.042000 C.3      1 SUBUNIT    0.1449
     26 C26          -1.406100   -1.083200    0.183100 C.3      1 SUBUNIT    0.1188
     27 N27          -1.151000   -1.703200    1.511100 N.3      1 SUBUNIT   -0.2810
     28 F28           5.384100    4.098300    1.050400 F        1 SUBUNIT   -0.2069
     29 H29           0.539100    0.501200    0.303800 H        1 SUBUNIT    0.1350
     30 H30           1.697300    0.981600   -2.873700 H        1 SUBUNIT    0.1352
@<TRIPOS>BOND
     1    1    2 2
     2    2    3 1
     3    2    4 1
     4    3   25 1
     5    4    5 1
     6    6    7 1
     7    6    8 1
     8    6   21 1
     9    9   10 2
    10    9   14 1
    11   10   11 1
    12   10   15 1
    13   11   12 2
    14   12   13 1
    15   13   14 2
    16   13   28 1
    17   15   20 1
    18   15   30 1
    19   16   17 1
    20   16   20 2
    21   17   18 2
    22   18   19 1
    23   18   21 1
    24   19   20 1
    25   19   29 1
    26   21   27 1
    27   22   23 1
    28   22   27 1
    29   23   24 1
    30   24   25 1
    31   25   26 1
    32   26   27 1
@<SCITEGIC>ATOM_PROPERTY
Formal Charge
SciTegic.value.StringValue
1 0
2 0
3 0
4 0
5 0
6 0
7 0
8 0
9 0
10 0
11 0
12 0
13 0
14 0
15 0
16 0
17 0
18 0
19 0
20 0
21 0
22 0
23 0
24 0
25 0
26 0
27 0
28 0
29 0
30 0

@<SCITEGIC>ATOM_PROPERTY
pdb_tempFactor
SciTegic.value.DoubleValue
1 0.00
2 0.00
3 0.00
4 0.00
5 0.00
6 0.00
7 0.00
8 0.00
9 0.00
10 0.00
11 0.00
12 0.00
13 0.00
14 0.00
15 0.00
16 0.00
17 0.00
18 0.00
19 0.00
20 0.00
21 0.00
22 0.00
23 0.00
24 0.00
25 0.00
26 0.00
27 0.00
28 0.00
29 0.00
30 0.00

@<SCITEGIC>ATOM_PROPERTY
pdb_occupancy
SciTegic.value.DoubleValue
1 1.00
2 1.00
3 1.00
4 1.00
5 1.00
6 1.00
7 1.00
8 1.00
9 1.00
10 1.00
11 1.00
12 1.00
13 1.00
14 1.00
15 1.00
16 1.00
17 1.00
18 1.00
19 1.00
20 1.00
21 1.00
22 1.00
23 1.00
24 1.00
25 1.00
26 1.00
27 1.00
28 1.00
29 1.00
30 1.00

#	Copyright: drugdesign.org
#	Creation time:	2023-12-31T19:08:04Z

@<TRIPOS>MOLECULE
Mol-22
   26    27     0 0 0
SMALL
USER_CHARGES


@<TRIPOS>ATOM
      1 O1           -4.643400    1.069000   -0.846500 O.2      1 SUBUNIT   -0.2664
      2 C2           -4.292500    0.122100   -1.518200 C.2      1 SUBUNIT    0.2643
      3 C3           -2.901300   -0.493500   -1.628800 C.3      1 SUBUNIT    0.1656
      4 O4           -5.183700   -0.522600   -2.289100 O.3      1 SUBUNIT   -0.3314
      5 H5           -5.959700    0.025300   -2.056400 H        1 SUBUNIT    0.2214
      6 N6            0.773300   -1.345600    2.351600 N.3      1 SUBUNIT   -0.3226
      7 H7            0.945100   -1.879900    3.126400 H        1 SUBUNIT    0.1190
      8 H8            0.081200   -0.716100    2.547600 H        1 SUBUNIT    0.1190
      9 C9            2.039200    2.920100   -0.588200 C.2      1 SUBUNIT    0.0362
     10 C10           2.676800    1.901900   -1.317500 C.2      1 SUBUNIT    0.0751
     11 C11           4.058200    1.684700   -1.182500 C.2      1 SUBUNIT    0.0362
     12 C12           4.815500    2.486300   -0.313300 C.2      1 SUBUNIT    0.0417
     13 C13           4.187100    3.503500    0.419100 C.2      1 SUBUNIT    0.1229
     14 C14           2.805900    3.718300    0.281000 C.2      1 SUBUNIT    0.0417
     15 O15           1.937200    1.102200   -2.179600 O.3      1 SUBUNIT   -0.3461
     16 C16           2.046100   -0.267000   -1.756900 C.3      1 SUBUNIT    0.1678
     17 C17           1.159400   -0.512700   -0.514600 C.3      1 SUBUNIT    0.0310
     18 C18           1.230800   -1.970500   -0.008600 C.3      1 SUBUNIT    0.0275
     19 C19           0.344400   -2.216000    1.234000 C.3      1 SUBUNIT    0.1017
     20 C20          -1.008200   -1.977800    1.019400 C.2      1 SUBUNIT    0.0757
     21 C21          -2.009000   -2.327400    1.943500 C.2      1 SUBUNIT    0.1360
     22 N22          -3.302100   -2.061200    1.670400 N.2      1 SUBUNIT   -0.2608
     23 C23          -3.635500   -1.459900    0.511200 C.2      1 SUBUNIT    0.1349
     24 C24          -2.634900   -1.110300   -0.412800 C.2      1 SUBUNIT    0.0690
     25 N25          -1.341800   -1.376400   -0.139800 N.2      1 SUBUNIT   -0.2524
     26 F26           4.926800    4.292300    1.274800 F        1 SUBUNIT   -0.2070
@<TRIPOS>BOND
     1    1    2 2
     2    2    3 1
     3    2    4 1
     4    3   24 1
     5    4    5 1
     6    6    7 1
     7    6    8 1
     8    6   19 1
     9    9   10 2
    10    9   14 1
    11   10   11 1
    12   10   15 1
    13   11   12 2
    14   12   13 1
    15   13   14 2
    16   13   26 1
    17   15   16 1
    18   16   17 1
    19   17   18 1
    20   18   19 1
    21   19   20 1
    22   20   21 2
    23   20   25 1
    24   21   22 1
    25   22   23 2
    26   23   24 1
    27   24   25 2
@<SCITEGIC>ATOM_PROPERTY
Formal Charge
SciTegic.value.StringValue
1 0
2 0
3 0
4 0
5 0
6 0
7 0
8 0
9 0
10 0
11 0
12 0
13 0
14 0
15 0
16 0
17 0
18 0
19 0
20 0
21 0
22 0
23 0
24 0
25 0
26 0

@<SCITEGIC>ATOM_PROPERTY
pdb_tempFactor
SciTegic.value.DoubleValue
1 0.00
2 0.00
3 0.00
4 0.00
5 0.00
6 0.00
7 0.00
8 0.00
9 0.00
10 0.00
11 0.00
12 0.00
13 0.00
14 0.00
15 0.00
16 0.00
17 0.00
18 0.00
19 0.00
20 0.00
21 0.00
22 0.00
23 0.00
24 0.00
25 0.00
26 0.00

@<SCITEGIC>ATOM_PROPERTY
pdb_occupancy
SciTegic.value.DoubleValue
1 1.00
2 1.00
3 1.00
4 1.00
5 1.00
6 1.00
7 1.00
8 1.00
9 1.00
10 1.00
11 1.00
12 1.00
13 1.00
14 1.00
15 1.00
16 1.00
17 1.00
18 1.00
19 1.00
20 1.00
21 1.00
22 1.00
23 1.00
24 1.00
25 1.00
26 1.00
