1
  DSViewer          3D                             0

 15 15  0  0  0  0  0  0  0  0999 V2000
    3.9747  -12.1297    7.0538 C   0  0
    3.4065  -12.4235    5.7959 O   0  0
    2.9954  -11.2141    5.1770 C   0  0
    3.8605  -10.9137    3.9529 C   0  0
    3.0457  -10.6033    2.7036 C   0  0
    3.8508  -10.0254    1.6846 O   0  0
    3.5385  -10.1393    0.3381 C   0  0
    3.4806  -11.4358   -0.0929 C   0  0
    3.1224  -11.6874   -1.3872 C   0  0
    2.8183  -10.6533   -2.2411 C   0  0
    2.8657   -9.3522   -1.8408 C   0  0
    3.2353   -9.0960   -0.5577 C   0  0
    3.1636   -7.7979   -0.1020 C   0  0
    3.3534   -6.8748   -0.8686 O   0  0
    3.2364   -7.5991    1.1852 N   0  0
  1  2  1  0  0  0
  2  3  1  0  0  0
  3  4  1  0  0  0
  4  5  1  0  0  0
  5  6  1  0  0  0
  6  7  1  0  0  0
  7  8  1  0  0  0
  7 12  2  0  0  0
  8  9  2  0  0  0
  9 10  1  0  0  0
 10 11  2  0  0  0
 11 12  1  0  0  0
 12 13  1  0  0  0
 13 14  2  0  0  0
 13 15  1  0  0  0
M  END
$$$$