1
  copyright 2023 drugdesign.org                             0

 15 15  0  0  0  0  0  0  0  0999 V2000
    3.9747  -12.1297    7.0538 C   0  0
    3.4065  -12.4235    5.7959 O   0  0
    2.9954  -11.2141    5.1770 C   0  0
    3.8605  -10.9137    3.9529 C   0  0
    3.0457  -10.6033    2.7036 C   0  0
    3.8508  -10.0254    1.6846 O   0  0
    3.5385  -10.1393    0.3381 C   0  0
    3.4806  -11.4358   -0.0929 C   0  0
    3.1224  -11.6874   -1.3872 C   0  0
    2.8183  -10.6533   -2.2411 C   0  0
    2.8657   -9.3522   -1.8408 C   0  0
    3.2353   -9.0960   -0.5577 C   0  0
    3.1636   -7.7979   -0.1020 C   0  0
    3.3534   -6.8748   -0.8686 O   0  0
    3.2364   -7.5991    1.1852 N   0  0
  1  2  1  0  0  0
  2  3  1  0  0  0
  3  4  1  0  0  0
  4  5  1  0  0  0
  5  6  1  0  0  0
  6  7  1  0  0  0
  7  8  1  0  0  0
  7 12  2  0  0  0
  8  9  2  0  0  0
  9 10  1  0  0  0
 10 11  2  0  0  0
 11 12  1  0  0  0
 12 13  1  0  0  0
 13 14  2  0  0  0
 13 15  1  0  0  0
M  END
$$$$
5
  copyright 2023 drugdesign.org                             0

 15 16  0  0  0  0  0  0  0  0999 V2000
    3.5687  -11.4406    5.6894 C   0  0
    3.2669  -11.3632    4.2943 O   0  0
    3.6780  -10.1786    3.6176 C   0  0
    3.7163   -9.8027    2.1681 C   0  0  1  0  0  0
    3.4686  -10.8484    1.3503 O   0  0
    2.6013   -8.8900    1.9365 C   0  0
    3.3097  -10.5399   -0.0503 C   0  0
    3.4530  -11.5942   -0.9245 C   0  0
    2.9044   -9.2657   -0.4262 C   0  0
    3.1692  -11.3614   -2.2366 C   0  0
    2.7597  -10.1053   -2.6250 C   0  0
    2.6217   -9.0583   -1.7417 C   0  0
    2.9159   -8.4065    0.6028 N   0  0
    3.2646   -7.0943    0.4068 C   0  0
    3.7307   -6.6475   -0.6500 O   0  0
  1  2  1  0  0  0
  2  3  1  0  0  0
  3  4  1  0  0  0
  4  5  1  0  0  0
  4  6  1  0  0  0
  5  7  1  0  0  0
  6 13  1  0  0  0
  7  8  1  0  0  0
  7  9  2  0  0  0
  8 10  2  0  0  0
  9 12  1  0  0  0
  9 13  1  0  0  0
 10 11  1  0  0  0
 11 12  2  0  0  0
 13 14  1  0  0  0
 14 15  2  0  0  0
M  END
$$$$
