Molecule-7
  copyright 2023 drugdesign.org                             0

  3  3  0  0  0  0  0  0  0  0999 V2000
   -1.8642   -6.4355    2.8374 C   0  0
   -2.2005   -7.5594    1.8397 C   0  0
   -2.9925   -7.4345    3.1543 C   0  0
  1  2  1  0  0  0
  2  3  1  0  0  0
  1  3  1  0  0  0
M  END
$$$$
Molecule-8
  copyright 2023 drugdesign.org                             0

  5  5  0  0  0  0  0  0  0  0999 V2000
   -3.6671   -6.7467   -3.1531 C   0  0
   -2.7371   -8.5043   -1.2068 C   0  0
   -0.6275   -6.9851   -0.8166 C   0  0
   -1.1499   -6.3954   -2.7567 C   0  0
   -2.5558   -7.0494   -2.0597 C   0  0
  1  2  1  0  0  0
  2  3  1  0  0  0
  3  4  1  0  0  0
  4  5  1  0  0  0
  1  5  1  0  0  0
M  END
$$$$
Molecule-4
  copyright 2023 drugdesign.org                             0

  5  5  0  0  0  0  0  0  0  0999 V2000
   -5.1082   -7.0363    1.7685 C   0  0
   -3.2099   -8.1801    0.8024 C   0  0
   -1.7982   -8.1383    0.1608 C   0  0
   -3.8600   -8.1161   -0.2045 C   0  0
   -5.1177   -7.8462    0.8088 C   0  0
  1  2  1  0  0  0
  2  3  1  0  0  0
  3  4  1  0  0  0
  4  5  1  0  0  0
  1  5  1  0  0  0
M  END
$$$$
Molecule centrale
  copyright 2023 drugdesign.org                             0

 33 35  0  0  0  0  0  0  0  0999 V2000
   -8.5759   -0.9746    0.4833 C   0  0
   -8.7525    0.3442    0.5351 C   0  0
   -7.4371    0.9554    0.4778 C   0  0
   -6.4853    0.0332    0.3933 C   0  0
   -7.1156   -1.2172    0.3884 N   0  0
   -9.7918   -1.8802    0.5305 C   0  0
  -10.2668   -2.3592   -0.6872 C   0  0
  -11.3766   -3.1946   -0.7449 C   0  0
  -12.0301   -3.5635    0.4239 C   0  0
  -11.5665   -3.0920    1.6450 C   0  0
  -10.4559   -2.2574    1.6912 C   0  0
   -6.3026   -2.4132    0.2943 C   0  0
   -6.5987   -3.5128   -0.5009 C   0  0
   -5.7623   -4.6224   -0.5343 C   0  0
   -4.6072   -4.6442    0.2362 C   0  0
   -4.2976   -3.5520    1.0361 C   0  0
   -5.1415   -2.4474    1.0615 C   0  0
   -7.1859    2.4341    0.5110 C   0  0
   -9.6275    0.8238    0.6010 H   0  0
   -5.5007    0.2007    0.3425 H   0  0
   -9.8026   -2.0983   -1.5336 H   0  0
  -11.7045   -3.5300   -1.6281 H   0  0
  -12.8286   -4.1642    0.3862 H   0  0
  -12.0315   -3.3529    2.4910 H   0  0
  -10.1292   -1.9226    2.5750 H   0  0
   -7.4283   -3.5060   -1.0593 H   0  0
   -5.9922   -5.4049   -1.1131 H   0  0
   -4.0027   -5.4406    0.2153 H   0  0
   -3.4677   -3.5600    1.5939 H   0  0
   -4.9107   -1.6650    1.6400 H   0  0
   -6.2024    2.6069    0.4590 H   0  0
   -7.5462    2.8149    1.3627 H   0  0
   -7.6416    2.8677   -0.2665 H   0  0
  1  2  2  0  0  0
  2  3  1  0  0  0
  3  4  2  0  0  0
  4  5  1  0  0  0
  5  1  1  0  0  0
  6  1  1  0  0  0
  6  7  1  0  0  0
  7  8  1  0  0  0
  8  9  1  0  0  0
  9 10  1  0  0  0
 10 11  1  0  0  0
 11  6  1  0  0  0
  5 12  1  0  0  0
 12 13  1  0  0  0
 13 14  1  0  0  0
 14 15  1  0  0  0
 15 16  1  0  0  0
 16 17  1  0  0  0
 17 12  1  0  0  0
  3 18  1  0  0  0
  2 19  1  0  0  0
  4 20  1  0  0  0
  7 21  1  0  0  0
  8 22  1  0  0  0
  9 23  1  0  0  0
 10 24  1  0  0  0
 11 25  1  0  0  0
 13 26  1  0  0  0
 14 27  1  0  0  0
 15 28  1  0  0  0
 16 29  1  0  0  0
 17 30  1  0  0  0
 18 31  1  0  0  0
 18 32  1  0  0  0
 18 33  1  0  0  0
M  END
$$$$
Molecule-1
  copyright 2023 drugdesign.org                             0

  5  5  0  0  0  0  0  0  0  0999 V2000
  -15.5787   -7.4310    2.8686 C   0  0
  -14.2847   -5.6208    2.7107 C   0  0
  -14.8657   -4.8237    1.7484 C   0  0
  -15.4138   -5.3507    1.1366 C   0  0
  -15.8819   -7.2080    1.5635 C   0  0
  1  2  1  0  0  0
  2  3  1  0  0  0
  3  4  1  0  0  0
  4  5  1  0  0  0
  5  1  1  0  0  0
M  END
$$$$
Molecule-10
  copyright 2023 drugdesign.org                             0

  5  4  0  0  0  0  0  0  0  0999 V2000
  -16.2922   -7.2177    0.1511 C   0  0
  -14.7525   -6.7034    0.1847 C   0  0
  -13.2461   -5.8386   -1.2251 C   0  0
  -14.1063   -5.8748   -1.6809 C   0  0
  -16.3095   -7.2106    0.2071 C   0  0
  1  2  1  0  0  0
  2  3  1  0  0  0
  3  4  1  0  0  0
  4  5  1  0  0  0
M  END
$$$$
