concept1.sd
  copyright 2023 drugdesign.org                             0

 32 35  0  0  0  0  0  0  0  0999 V2000
    1.3571   -0.2102   -1.1314 C   0  0
    0.0635   -0.1288   -1.6368 N   0  0
    1.6627   -0.5308    0.2245 N   0  0
    2.2971    0.0481   -1.9609 O   0  0
   -1.2172    0.1926   -0.8384 C   0  0  1  0  0  0
   -0.0321   -0.1185   -3.1805 C   0  0
    0.7885   -1.3356    1.2087 C   0  0  1  0  0  0
    3.0647   -0.1520    0.7161 C   0  0
   -1.6431   -0.8067    0.2961 C   0  0  1  0  0  0
   -1.2043    1.6999   -0.4290 C   0  0
   -0.6595   -0.7503    1.5378 C   0  0
    0.8687   -2.8723    0.8136 C   0  0
    3.2475    0.4823    2.1441 C   0  0
   -3.0108   -0.3946    0.6122 O   0  0
   -1.3834    2.6415   -1.7038 C   0  0
    2.3206   -3.4877    1.0516 C   0  0
    4.4217    0.0376    2.9592 C   0  0
    2.3277    1.5223    2.6344 C   0  0
   -3.2641   -0.8540    1.4470 H   0  0
   -0.2297    3.3925   -2.2227 C   0  0
   -2.6956    2.7480   -2.3807 C   0  0
    2.8449   -3.6315    2.4495 C   0  0
    3.1984   -3.7705   -0.1091 C   0  0
    4.6758    0.6530    4.2579 C   0  0
    2.5796    2.1382    3.9358 C   0  0
   -0.3872    4.2453   -3.4181 C   0  0
   -2.8616    3.6090   -3.5816 C   0  0
    4.2654   -4.0147    2.6647 C   0  0
    4.6115   -4.1637    0.1151 C   0  0
    3.7634    1.7031    4.7391 C   0  0
   -1.7000    4.3540   -4.0930 C   0  0
    5.1419   -4.2749    1.4955 C   0  0
  1  2  1  0  0  0
  1  3  1  0  0  0
  1  4  2  0  0  0
  2  5  1  0  0  0
  2  6  1  0  0  0
  3  7  1  0  0  0
  3  8  1  0  0  0
  5  9  1  0  0  0
  5 10  1  0  0  0
  7 11  1  0  0  0
  7 12  1  0  0  0
  8 13  1  0  0  0
  9 11  1  0  0  0
  9 14  1  0  0  0
 10 15  1  0  0  0
 12 16  1  0  0  0
 13 17  1  0  0  0
 13 18  1  0  0  0
 14 19  1  0  0  0
 15 20  1  0  0  0
 15 21  1  0  0  0
 16 22  1  0  0  0
 16 23  1  0  0  0
 17 24  1  0  0  0
 18 25  1  0  0  0
 20 26  1  0  0  0
 21 27  1  0  0  0
 22 28  1  0  0  0
 23 29  1  0  0  0
 24 30  1  0  0  0
 25 30  1  0  0  0
 26 31  1  0  0  0
 27 31  1  0  0  0
 28 32  1  0  0  0
 29 32  1  0  0  0
M  END
$$$$
concept1.sd
  copyright 2023 drugdesign.org                             0

 33 37  0  0  0  0  0  0  0  0999 V2000
   -7.2845    2.2139   -1.9384 C   0  0
   -6.3590    3.3699   -1.8166 C   0  0
   -8.2469    1.8996   -0.8851 C   0  0
   -6.4165    4.2157   -0.6424 C   0  0
   -8.3043    2.7445    0.2925 C   0  0
   -7.3897    3.9082    0.4023 C   0  0
   -7.2316    1.3214   -3.2057 C   0  0
   -4.2451   -0.2392   -3.4650 C   0  0
   -3.5235    0.6318   -2.4976 C   0  0
   -4.2114    0.0637   -4.9023 C   0  0
   -2.8115    1.8288   -2.9840 C   0  0
   -3.4886    1.2540   -5.3801 C   0  0
   -2.8015    2.1352   -4.4226 C   0  0
   -8.6337   -1.9582   -2.0346 N   0  0
   -8.6490   -0.6922   -2.3646 C   0  0
   -7.3654   -0.1441   -2.7938 N   0  0
   -6.4797   -1.2589   -2.6969 C   0  0
   -7.2443   -2.3443   -2.2413 C   0  0
   -9.8384    0.2823   -2.3573 C   0  0
   -5.1020   -1.3751   -2.9720 C   0  0
   -4.4965   -2.6422   -2.7726 C   0  0
   -5.2709   -3.7544   -2.3077 C   0  0
   -6.6571   -3.6110   -2.0379 C   0  0
  -11.7318   -2.2911   -3.1426 C   0  0
  -12.3928   -1.2445   -3.9162 C   0  0
  -12.2864   -3.6513   -3.1330 C   0  0
  -13.6037   -1.5584   -4.6812 C   0  0
  -13.5081   -3.9722   -3.8971 C   0  0
  -14.1597   -2.9177   -4.6690 C   0  0
  -11.8653    0.0606   -3.9243 O   0  0
  -10.4179   -0.0052   -3.8971 C   0  0
   -7.3803   -4.6426   -1.6057 O   0  0
   -7.2687   -4.6994   -0.6429 H   0  0
  1  2  1  0  0  0
  1  3  1  0  0  0
  1  7  1  0  0  0
  2  4  1  0  0  0
  3  5  1  0  0  0
  4  6  1  0  0  0
  5  6  1  0  0  0
  7 16  1  0  0  0
  8  9  1  0  0  0
  8 10  1  0  0  0
  8 20  1  0  0  0
  9 11  1  0  0  0
 10 12  1  0  0  0
 11 13  1  0  0  0
 12 13  1  0  0  0
 14 18  1  0  0  0
 14 15  2  0  0  0
 15 16  1  0  0  0
 15 19  1  0  0  0
 16 17  1  0  0  0
 17 18  1  0  0  0
 17 20  1  0  0  0
 18 23  1  0  0  0
 19 31  1  0  0  0
 20 21  1  0  0  0
 21 22  1  0  0  0
 22 23  1  0  0  0
 23 32  1  0  0  0
 24 25  1  0  0  0
 24 26  1  0  0  0
 25 27  1  0  0  0
 25 30  1  0  0  0
 26 28  1  0  0  0
 27 29  1  0  0  0
 28 29  1  0  0  0
 30 31  1  0  0  0
 32 33  1  0  0  0
M  END
$$$$