concept1.sd
  DSViewer          3D                             0

 32 35  0  0  0  0  0  0  0  0999 V2000
    1.3571   -0.2102   -1.1314 C   0  0
    0.0635   -0.1288   -1.6368 N   0  0
    1.6627   -0.5308    0.2245 N   0  0
    2.2971    0.0481   -1.9609 O   0  0
   -1.2172    0.1926   -0.8384 C   0  0  1  0  0  0
   -0.0321   -0.1185   -3.1805 C   0  0
    0.7885   -1.3356    1.2087 C   0  0  1  0  0  0
    3.0647   -0.1520    0.7161 C   0  0
   -1.6431   -0.8067    0.2961 C   0  0  1  0  0  0
   -1.2043    1.6999   -0.4290 C   0  0
   -0.6595   -0.7503    1.5378 C   0  0
    0.8687   -2.8723    0.8136 C   0  0
    3.2475    0.4823    2.1441 C   0  0
   -3.0108   -0.3946    0.6122 O   0  0
   -1.3834    2.6415   -1.7038 C   0  0
    2.3206   -3.4877    1.0516 C   0  0
    4.4217    0.0376    2.9592 C   0  0
    2.3277    1.5223    2.6344 C   0  0
   -3.2641   -0.8540    1.4470 H   0  0
   -0.2297    3.3925   -2.2227 C   0  0
   -2.6956    2.7480   -2.3807 C   0  0
    2.8449   -3.6315    2.4495 C   0  0
    3.1984   -3.7705   -0.1091 C   0  0
    4.6758    0.6530    4.2579 C   0  0
    2.5796    2.1382    3.9358 C   0  0
   -0.3872    4.2453   -3.4181 C   0  0
   -2.8616    3.6090   -3.5816 C   0  0
    4.2654   -4.0147    2.6647 C   0  0
    4.6115   -4.1637    0.1151 C   0  0
    3.7634    1.7031    4.7391 C   0  0
   -1.7000    4.3540   -4.0930 C   0  0
    5.1419   -4.2749    1.4955 C   0  0
  1  2  1  0  0  0
  1  3  1  0  0  0
  1  4  2  0  0  0
  2  5  1  0  0  0
  2  6  1  0  0  0
  3  7  1  0  0  0
  3  8  1  0  0  0
  5  9  1  0  0  0
  5 10  1  0  0  0
  7 11  1  0  0  0
  7 12  1  0  0  0
  8 13  1  0  0  0
  9 11  1  0  0  0
  9 14  1  0  0  0
 10 15  1  0  0  0
 12 16  1  0  0  0
 13 17  4  0  0  0
 13 18  4  0  0  0
 14 19  1  0  0  0
 15 20  4  0  0  0
 15 21  4  0  0  0
 16 22  4  0  0  0
 16 23  4  0  0  0
 17 24  4  0  0  0
 18 25  4  0  0  0
 20 26  4  0  0  0
 21 27  4  0  0  0
 22 28  4  0  0  0
 23 29  4  0  0  0
 24 30  4  0  0  0
 25 30  4  0  0  0
 26 31  4  0  0  0
 27 31  4  0  0  0
 28 32  4  0  0  0
 29 32  4  0  0  0
M  END
$$$$
