concept1.sd
  copyright 2023 drugdesign.org                             0

 32 35  0  0  0  0  0  0  0  0999 V2000
    1.3571   -0.2102   -1.1314 C   0  0
    0.0635   -0.1288   -1.6368 N   0  0
    1.6627   -0.5308    0.2245 N   0  0
    2.2971    0.0481   -1.9609 O   0  0
   -1.2172    0.1926   -0.8384 C   0  0  1  0  0  0
   -0.0321   -0.1185   -3.1805 C   0  0
    0.7885   -1.3356    1.2087 C   0  0  1  0  0  0
    3.0647   -0.1520    0.7161 C   0  0
   -1.6431   -0.8067    0.2961 C   0  0  1  0  0  0
   -1.2043    1.6999   -0.4290 C   0  0
   -0.6595   -0.7503    1.5378 C   0  0
    0.8687   -2.8723    0.8136 C   0  0
    3.2475    0.4823    2.1441 C   0  0
   -3.0108   -0.3946    0.6122 O   0  0
   -1.3834    2.6415   -1.7038 C   0  0
    2.3206   -3.4877    1.0516 C   0  0
    4.4217    0.0376    2.9592 C   0  0
    2.3277    1.5223    2.6344 C   0  0
   -3.2641   -0.8540    1.4470 H   0  0
   -0.2297    3.3925   -2.2227 C   0  0
   -2.6956    2.7480   -2.3807 C   0  0
    2.8449   -3.6315    2.4495 C   0  0
    3.1984   -3.7705   -0.1091 C   0  0
    4.6758    0.6530    4.2579 C   0  0
    2.5796    2.1382    3.9358 C   0  0
   -0.3872    4.2453   -3.4181 C   0  0
   -2.8616    3.6090   -3.5816 C   0  0
    4.2654   -4.0147    2.6647 C   0  0
    4.6115   -4.1637    0.1151 C   0  0
    3.7634    1.7031    4.7391 C   0  0
   -1.7000    4.3540   -4.0930 C   0  0
    5.1419   -4.2749    1.4955 C   0  0
  1  2  1  0  0  0
  1  3  1  0  0  0
  1  4  2  0  0  0
  2  5  1  0  0  0
  2  6  1  0  0  0
  3  7  1  0  0  0
  3  8  1  0  0  0
  5  9  1  0  0  0
  5 10  1  0  0  0
  7 11  1  0  0  0
  7 12  1  0  0  0
  8 13  1  0  0  0
  9 11  1  0  0  0
  9 14  1  0  0  0
 10 15  1  0  0  0
 12 16  1  0  0  0
 13 17  1  0  0  0
 13 18  1  0  0  0
 14 19  1  0  0  0
 15 20  1  0  0  0
 15 21  1  0  0  0
 16 22  1  0  0  0
 16 23  1  0  0  0
 17 24  1  0  0  0
 18 25  1  0  0  0
 20 26  1  0  0  0
 21 27  1  0  0  0
 22 28  1  0  0  0
 23 29  1  0  0  0
 24 30  1  0  0  0
 25 30  1  0  0  0
 26 31  1  0  0  0
 27 31  1  0  0  0
 28 32  1  0  0  0
 29 32  1  0  0  0
M  END
$$$$
concept1.sd
  copyright 2023 drugdesign.org                             0

 33 37  0  0  0  0  0  0  0  0999 V2000
    3.2078    0.6832    1.9043 C   0  0
    4.4146    0.2728    2.6678 C   0  0
    2.3024    1.7107    2.4132 C   0  0
    4.7151    0.9097    3.9333 C   0  0
    2.6008    2.3480    3.6815 C   0  0
    3.8165    1.9471    4.4327 C   0  0
    2.8995    0.0111    0.5410 C   0  0
    2.3014   -3.2927    0.9263 C   0  0
    2.8856   -3.4043    2.2907 C   0  0
    3.1235   -3.5798   -0.2571 C   0  0
    4.3087   -3.7599    2.4481 C   0  0
    4.5398   -3.9454   -0.0901 C   0  0
    5.1288   -4.0247    1.2561 C   0  0
   -0.8095    0.4484    0.1601 N   0  0
    0.4454    0.8140    0.2187 C   0  0
    1.4000   -0.2674    0.4460 N   0  0
    0.5730   -1.4274    0.5308 C   0  0
   -0.7508   -0.9936    0.3589 C   0  0
    1.0360    2.2268    0.0796 C   0  0
    0.8965   -2.7833    0.7408 C   0  0
   -0.1714   -3.7162    0.7745 C   0  0
   -1.5250   -3.2804    0.5998 C   0  0
   -1.8242   -1.9088    0.3898 C   0  0
   -1.4170    2.8605   -2.0193 C   0  0
   -0.3428    3.6239   -2.6468 C   0  0
   -2.7692    2.8980   -2.5920 C   0  0
   -0.6194    4.4203   -3.8465 C   0  0
   -3.0550    3.7021   -3.7967 C   0  0
   -1.9721    4.4601   -4.4172 C   0  0
    0.9531    3.5923   -2.0979 O   0  0
    1.2240    2.2665   -1.5795 C   0  0
   -3.0812   -1.4998    0.2269 O   0  0
   -3.4695   -1.3788    1.1085 H   0  0
  1  2  1  0  0  0
  1  3  1  0  0  0
  1  7  1  0  0  0
  2  4  1  0  0  0
  3  5  1  0  0  0
  4  6  1  0  0  0
  5  6  1  0  0  0
  7 16  1  0  0  0
  8  9  1  0  0  0
  8 10  1  0  0  0
  8 20  1  0  0  0
  9 11  1  0  0  0
 10 12  1  0  0  0
 11 13  1  0  0  0
 12 13  1  0  0  0
 14 18  1  0  0  0
 14 15  2  0  0  0
 15 16  1  0  0  0
 15 19  1  0  0  0
 16 17  1  0  0  0
 17 18  1  0  0  0
 17 20  1  0  0  0
 18 23  1  0  0  0
 19 31  1  0  0  0
 20 21  1  0  0  0
 21 22  1  0  0  0
 22 23  1  0  0  0
 23 32  1  0  0  0
 24 25  1  0  0  0
 24 26  1  0  0  0
 25 27  1  0  0  0
 25 30  1  0  0  0
 26 28  1  0  0  0
 27 29  1  0  0  0
 28 29  1  0  0  0
 30 31  1  0  0  0
 32 33  1  0  0  0
M  END
$$$$