concept1.sd
  DSViewer          3D                             0

 33 37  0  0  0  0  0  0  0  0999 V2000
   -7.2845    2.2139   -1.9384 C   0  0
   -6.3590    3.3699   -1.8166 C   0  0
   -8.2469    1.8996   -0.8851 C   0  0
   -6.4165    4.2157   -0.6424 C   0  0
   -8.3043    2.7445    0.2925 C   0  0
   -7.3897    3.9082    0.4023 C   0  0
   -7.2316    1.3214   -3.2057 C   0  0
   -4.2451   -0.2392   -3.4650 C   0  0
   -3.5235    0.6318   -2.4976 C   0  0
   -4.2114    0.0637   -4.9023 C   0  0
   -2.8115    1.8288   -2.9840 C   0  0
   -3.4886    1.2540   -5.3801 C   0  0
   -2.8015    2.1352   -4.4226 C   0  0
   -8.6337   -1.9582   -2.0346 N   0  0
   -8.6490   -0.6922   -2.3646 C   0  0
   -7.3654   -0.1441   -2.7938 N   0  0
   -6.4797   -1.2589   -2.6969 C   0  0
   -7.2443   -2.3443   -2.2413 C   0  0
   -9.8384    0.2823   -2.3573 C   0  0
   -5.1020   -1.3751   -2.9720 C   0  0
   -4.4965   -2.6422   -2.7726 C   0  0
   -5.2709   -3.7544   -2.3077 C   0  0
   -6.6571   -3.6110   -2.0379 C   0  0
  -11.7318   -2.2911   -3.1426 C   0  0
  -12.3928   -1.2445   -3.9162 C   0  0
  -12.2864   -3.6513   -3.1330 C   0  0
  -13.6037   -1.5584   -4.6812 C   0  0
  -13.5081   -3.9722   -3.8971 C   0  0
  -14.1597   -2.9177   -4.6690 C   0  0
  -11.8653    0.0606   -3.9243 O   0  0
  -10.4179   -0.0052   -3.8971 C   0  0
   -7.3803   -4.6426   -1.6057 O   0  0
   -7.2687   -4.6994   -0.6429 H   0  0
  1  2  4  0  0  0
  1  3  4  0  0  0
  1  7  4  0  0  0
  2  4  4  0  0  0
  3  5  4  0  0  0
  4  6  4  0  0  0
  5  6  4  0  0  0
  7 16  1  0  0  0
  8  9  4  0  0  0
  8 10  4  0  0  0
  8 20  1  0  0  0
  9 11  4  0  0  0
 10 12  4  0  0  0
 11 13  4  0  0  0
 12 13  4  0  0  0
 14 18  1  0  0  0
 14 15  2  0  0  0
 15 16  1  0  0  0
 15 19  1  0  0  0
 16 17  1  0  0  0
 17 18  4  0  0  0
 17 20  4  0  0  0
 18 23  4  0  0  0
 19 31  1  0  0  0
 20 21  4  0  0  0
 21 22  4  0  0  0
 22 23  4  0  0  0
 23 32  1  0  0  0
 24 25  4  0  0  0
 24 26  4  0  0  0
 25 27  4  0  0  0
 25 30  1  0  0  0
 26 28  4  0  0  0
 27 29  4  0  0  0
 28 29  4  0  0  0
 30 31  1  0  0  0
 32 33  1  0  0  0
M  END
$$$$