FTI-276
  copyright 2023 drugdesign.org                             0

 35 36  0  0  0  0  0  0  0  0999 V2000
   -2.5461    0.4860   -4.5938 H   0  0
   -1.3963   -0.0793   -4.0990 S   0  0
   -2.1679   -1.0437   -2.6934 C   0  0
   -1.0989   -1.8528   -1.8499 C   0  0  2  0  0  0
   -1.8167   -2.7551   -0.8439 N   0  0
   -1.1535   -3.3230   -0.4056 H   0  0
   -2.4624   -3.3393   -1.3203 H   0  0
   -0.0124   -0.8675   -1.1744 C   0  0
    0.9174   -0.1759   -2.1468 N   0  0
    0.9029   -0.4652   -3.0341 H   0  0
    1.8479    0.9670   -1.7718 C   0  0
    1.3477    2.3158   -1.8013 C   0  0
    2.1942    3.4551   -1.4439 C   0  0
    3.5744    3.2517   -1.0533 C   0  0
    4.0732    1.8996   -1.0304 C   0  0
    3.2237    0.7652   -1.3892 C   0  0
    4.5180    4.4277   -0.6563 C   0  0
    4.2936    5.6045   -1.0630 O   0  0
    5.6183    4.1269    0.1217 N   0  0
    5.7483    3.2404    0.3784 H   0  0
    6.6513    5.1706    0.5595 C   0  0  2  0  0  0
    8.0475    4.6084    1.0258 C   0  0
    9.0997    5.3177    1.1176 O   0  0
    8.0649    3.2831    1.3174 O   0  0
    8.9620    3.0171    1.6050 H   0  0
    1.5907    4.8920   -1.5124 C   0  0
    0.8520    5.3197   -2.6903 C   0  0
    0.2952    6.6436   -2.7387 C   0  0
    0.4685    7.5385   -1.6149 C   0  0
    1.2002    7.1194   -0.4349 C   0  0
    1.7599    5.7957   -0.3839 C   0  0
    6.0166    6.2493    1.5514 C   0  0
    7.0701    6.9744    2.5315 C   0  0
    6.2649    8.2290    3.6493 S   0  0
    7.7742    8.8237    4.6080 C   0  0
  1  2  1  0  0  0
  2  3  1  0  0  0
  3  4  1  0  0  0
  4  5  1  0  0  0
  4  8  1  0  0  0
  5  6  1  0  0  0
  5  7  1  0  0  0
  8  9  1  0  0  0
  9 10  1  0  0  0
  9 11  1  0  0  0
 11 12  1  0  0  0
 11 16  1  0  0  0
 12 13  1  0  0  0
 13 14  1  0  0  0
 13 26  1  0  0  0
 14 15  1  0  0  0
 14 17  1  0  0  0
 15 16  1  0  0  0
 17 18  2  0  0  0
 17 19  1  0  0  0
 19 20  1  0  0  0
 19 21  1  0  0  0
 21 22  1  0  0  0
 21 32  1  0  0  0
 22 23  2  0  0  0
 22 24  1  0  0  0
 24 25  1  0  0  0
 26 27  1  0  0  0
 26 31  1  0  0  0
 27 28  1  0  0  0
 28 29  1  0  0  0
 29 30  1  0  0  0
 30 31  1  0  0  0
 32 33  1  0  0  0
 33 34  1  0  0  0
 34 35  1  0  0  0
M  END
$$$$
CVIM
  copyright 2023 drugdesign.org                             0

 33 32  0  0  0  0  0  0  0  0999 V2000
    0.5237   -2.5573   -1.2313 C   0  0
    1.2258   -2.9376   -2.1815 O   0  0
   -0.0710   -3.5318   -0.2291 C   0  0
    0.2287   -1.2858   -1.0357 N   0  0
    0.7431   -0.2999   -1.9315 C   0  0  2  0  0  0
    1.6698    0.6003   -1.1601 C   0  0
    1.2737    1.2279   -0.1826 O   0  0
   -0.4181    0.4534   -2.5619 C   0  0
   -1.5917   -0.6553   -3.3903 S   0  0
    2.9363    0.5755   -1.5505 N   0  0
    3.9671    1.3816   -0.9152 C   0  0  2  0  0  0
    4.0246    2.7372   -1.6356 C   0  0
    4.3729    2.7914   -2.8172 O   0  0
    5.3276    0.6521   -1.0211 C   0  0
    6.4445    1.4896   -0.4489 C   0  0
    5.2438   -0.6747   -0.2852 C   0  0
    3.6342    3.8128   -0.9406 N   0  0
    3.6369    5.1790   -1.5167 C   0  0  2  0  0  0
    4.7769    6.1037   -1.0032 C   0  0
    4.8785    7.2699   -1.4139 O   0  0
    2.2266    5.9030   -1.3294 C   0  0  2  0  0  0
    1.9115    6.1606    0.1529 C   0  0
    1.1426    5.0681   -1.9311 C   0  0
    0.6340    6.9596    0.3841 C   0  0
    5.7154    5.5202   -0.2574 N   0  0
    6.8230    6.2617    0.3352 C   0  0  2  0  0  0
    7.8992    5.2687    0.8361 C   0  0
    9.0695    5.6554    1.0552 O   0  0
    7.5728    4.0789    1.0051 O   0  0
    6.2476    7.0411    1.4944 C   0  0
    7.2161    7.5709    2.4463 C   0  0
    6.3928    7.9654    3.9923 S   0  0
    7.8403    8.4736    4.8835 C   0  0
  1  2  2  0  0  0
  1  3  1  0  0  0
  1  4  1  0  0  0
  4  5  1  0  0  0
  5  6  1  0  0  0
  5  8  1  0  0  0
  6  7  2  0  0  0
  6 10  1  0  0  0
  8  9  1  0  0  0
 10 11  1  0  0  0
 11 12  1  0  0  0
 11 14  1  0  0  0
 12 13  2  0  0  0
 12 17  1  0  0  0
 14 15  1  0  0  0
 14 16  1  0  0  0
 17 18  1  0  0  0
 18 19  1  0  0  0
 18 21  1  0  0  0
 19 20  2  0  0  0
 19 25  1  0  0  0
 21 22  1  0  0  0
 21 23  1  0  0  0
 22 24  1  0  0  0
 25 26  1  0  0  0
 26 27  1  0  0  0
 26 30  1  0  0  0
 27 28  2  0  0  0
 27 29  1  0  0  0
 30 31  1  0  0  0
 31 32  1  0  0  0
 32 33  1  0  0  0
M  END
$$$$