CVIM
  DSViewer          3D                             0

 33 32  0  0  0  0  0  0  0  0999 V2000
    0.5237   -2.5573   -1.2313 C   0  0
    1.2258   -2.9376   -2.1815 O   0  0
   -0.0710   -3.5318   -0.2291 C   0  0
    0.2287   -1.2858   -1.0357 N   0  0
    0.7431   -0.2999   -1.9315 C   0  0  2  0  0  0
    1.6698    0.6003   -1.1601 C   0  0
    1.2737    1.2279   -0.1826 O   0  0
   -0.4181    0.4534   -2.5619 C   0  0
   -1.5917   -0.6553   -3.3903 S   0  0
    2.9363    0.5755   -1.5505 N   0  0
    3.9671    1.3816   -0.9152 C   0  0  2  0  0  0
    4.0246    2.7372   -1.6356 C   0  0
    4.3729    2.7914   -2.8172 O   0  0
    5.3276    0.6521   -1.0211 C   0  0
    6.4445    1.4896   -0.4489 C   0  0
    5.2438   -0.6747   -0.2852 C   0  0
    3.6342    3.8128   -0.9406 N   0  0
    3.6369    5.1790   -1.5167 C   0  0  2  0  0  0
    4.7769    6.1037   -1.0032 C   0  0
    4.8785    7.2699   -1.4139 O   0  0
    2.2266    5.9030   -1.3294 C   0  0  2  0  0  0
    1.9115    6.1606    0.1529 C   0  0
    1.1426    5.0681   -1.9311 C   0  0
    0.6340    6.9596    0.3841 C   0  0
    5.7154    5.5202   -0.2574 N   0  0
    6.8230    6.2617    0.3352 C   0  0  2  0  0  0
    7.8992    5.2687    0.8361 C   0  0
    9.0695    5.6554    1.0552 O   0  0
    7.5728    4.0789    1.0051 O   0  0
    6.2476    7.0411    1.4944 C   0  0
    7.2161    7.5709    2.4463 C   0  0
    6.3928    7.9654    3.9923 S   0  0
    7.8403    8.4736    4.8835 C   0  0
  1  2  2  0  0  0
  1  3  1  0  0  0
  1  4  1  0  0  0
  4  5  1  0  0  0
  5  6  1  0  0  0
  5  8  1  0  0  0
  6  7  2  0  0  0
  6 10  1  0  0  0
  8  9  1  0  0  0
 10 11  1  0  0  0
 11 12  1  0  0  0
 11 14  1  0  0  0
 12 13  2  0  0  0
 12 17  1  0  0  0
 14 15  1  0  0  0
 14 16  1  0  0  0
 17 18  1  0  0  0
 18 19  1  0  0  0
 18 21  1  0  0  0
 19 20  2  0  0  0
 19 25  1  0  0  0
 21 22  1  0  0  0
 21 23  1  0  0  0
 22 24  1  0  0  0
 25 26  1  0  0  0
 26 27  1  0  0  0
 26 30  1  0  0  0
 27 28  2  0  0  0
 27 29  1  0  0  0
 30 31  1  0  0  0
 31 32  1  0  0  0
 32 33  1  0  0  0
M  END
$$$$