Mol-8
  copyright 2023 drugdesign.org                             0

 31 34  0  0  0  0  0  0  0  0999 V2000
   -4.2123    1.2477   -0.8399 O   0  0
   -3.8614    0.3008   -1.5116 C   0  0
   -2.4701   -0.3148   -1.6222 C   0  0
   -4.7526   -0.3439   -2.2825 O   0  0
   -5.5286    0.2040   -2.0498 H   0  0
    1.1687   -1.3855    2.2222 N   0  0
    1.3252   -2.0390    2.9028 H   0  0
    0.4825   -0.7858    2.5104 H   0  0
    2.4703    3.0988   -0.5816 C   0  0
    3.1079    2.0806   -1.3108 C   0  0
    4.4893    1.8634   -1.1759 C   0  0
    5.2466    2.6650   -0.3066 C   0  0
    4.6182    3.6822    0.4258 C   0  0
    3.2370    3.8970    0.2876 C   0  0
    2.3683    1.2809   -2.1730 O   0  0
    2.8160   -1.1285   -2.0098 C   0  0
    2.3344   -2.1371   -1.0722 C   0  0
    1.5216   -1.5163   -0.2071 C   0  0
    1.4024   -0.1219   -0.4826 O   0  0
    2.2456    0.0128   -1.6205 C   0  0
    0.7413   -2.0604    0.9753 C   0  0  2  0  0  0
   -2.8674   -2.0855    1.5602 C   0  0
   -4.0259   -2.4566    2.3884 C   0  0
   -5.1636   -2.0324    1.8128 C   0  0
   -4.9803   -1.1709    0.2677 S   0  0
   -3.2475   -1.4001    0.4102 C   0  0
   -2.2903   -0.9571   -0.5145 C   0  0
   -0.9296   -1.2187   -0.2588 C   0  0
   -0.5446   -1.9140    0.9080 C   0  0
   -1.5173   -2.3534    1.8285 C   0  0
    5.3579    4.4710    1.2814 F   0  0
  1  2  2  0  0  0
  2  3  1  0  0  0
  2  4  1  0  0  0
  3 27  1  0  0  0
  4  5  1  0  0  0
  6  7  1  0  0  0
  6  8  1  0  0  0
  6 21  1  0  0  0
  9 10  2  0  0  0
  9 14  1  0  0  0
 10 11  1  0  0  0
 10 15  1  0  0  0
 11 12  2  0  0  0
 12 13  1  0  0  0
 13 14  2  0  0  0
 13 31  1  0  0  0
 15 20  1  0  0  0
 16 17  1  0  0  0
 16 20  2  0  0  0
 17 18  2  0  0  0
 18 19  1  0  0  0
 18 21  1  0  0  0
 19 20  1  0  0  0
 21 29  1  0  0  0
 22 23  1  0  0  0
 22 26  2  0  0  0
 22 30  1  0  0  0
 23 24  2  0  0  0
 24 25  1  0  0  0
 25 26  1  0  0  0
 26 27  1  0  0  0
 27 28  2  0  0  0
 28 29  1  0  0  0
 29 30  2  0  0  0
M  END
$$$$
Mol13
  copyright 2023 drugdesign.org                             0

 30 32  0  0  0  0  0  0  0  0999 V2000
   -4.4650    1.5016   -0.6060 O   0  0
   -4.2097    0.4480   -1.1496 C   0  0
   -3.0586   -0.1993   -1.1785 O   0  0
   -5.1659   -0.2083   -1.8274 O   0  0
   -5.8865    0.4328   -1.6659 H   0  0
    0.7044   -1.1876    2.7580 N   0  0
    0.8120   -1.7592    3.5176 H   0  0
    0.0785   -0.4964    2.9676 H   0  0
    2.3589    2.7621   -0.6099 C   0  0
    2.8925    1.6049   -1.2020 C   0  0
    4.2509    1.2836   -1.0438 C   0  0
    5.0892    2.1195   -0.2885 C   0  0
    4.5647    3.2752    0.3069 C   0  0
    3.2062    3.5938    0.1458 C   0  0
    2.0721    0.7702   -1.9505 N   0  0
    2.3059   -1.6287   -1.4760 C   0  0
    1.7501   -2.4604   -0.4135 C   0  0
    1.0086   -1.6624    0.3655 C   0  0
    1.0100   -0.3101   -0.0890 N   0  0
    1.8451   -0.3998   -1.2372 C   0  0
    0.2004   -1.9768    1.6110 C   0  0  2  0  0  0
   -1.9535   -2.9449    1.6748 C   0  0
   -3.4602   -2.6292    1.5733 C   0  0
   -3.7719   -1.9760    0.2127 C   0  0
   -2.8982   -0.7180    0.0420 C   0  0  1  0  0  0
   -1.4061   -1.0832    0.1831 C   0  0
   -1.1510   -1.7032    1.5111 N   0  0
    5.3841    4.0983    1.0504 F   0  0
    0.5391    0.5012    0.3038 H   0  0
    1.6973    0.9816   -2.8737 H   0  0
  1  2  2  0  0  0
  2  3  1  0  0  0
  2  4  1  0  0  0
  3 25  1  0  0  0
  4  5  1  0  0  0
  6  7  1  0  0  0
  6  8  1  0  0  0
  6 21  1  0  0  0
  9 10  2  0  0  0
  9 14  1  0  0  0
 10 11  1  0  0  0
 10 15  1  0  0  0
 11 12  2  0  0  0
 12 13  1  0  0  0
 13 14  2  0  0  0
 13 28  1  0  0  0
 15 20  1  0  0  0
 15 30  1  0  0  0
 16 17  1  0  0  0
 16 20  2  0  0  0
 17 18  2  0  0  0
 18 19  1  0  0  0
 18 21  1  0  0  0
 19 20  1  0  0  0
 19 29  1  0  0  0
 21 27  1  0  0  0
 22 23  1  0  0  0
 22 27  1  0  0  0
 23 24  1  0  0  0
 24 25  1  0  0  0
 25 26  1  0  0  0
 26 27  1  0  0  0
M  END
$$$$
Mol-22
  copyright 2023 drugdesign.org                             0

 26 27  0  0  0  0  0  0  0  0999 V2000
   -4.6434    1.0690   -0.8465 O   0  0
   -4.2925    0.1221   -1.5182 C   0  0
   -2.9013   -0.4935   -1.6288 C   0  0
   -5.1837   -0.5226   -2.2891 O   0  0
   -5.9597    0.0253   -2.0564 H   0  0
    0.7733   -1.3456    2.3516 N   0  0
    0.9451   -1.8799    3.1264 H   0  0
    0.0812   -0.7161    2.5476 H   0  0
    2.0392    2.9201   -0.5882 C   0  0
    2.6768    1.9019   -1.3175 C   0  0
    4.0582    1.6847   -1.1825 C   0  0
    4.8155    2.4863   -0.3133 C   0  0
    4.1871    3.5035    0.4191 C   0  0
    2.8059    3.7183    0.2810 C   0  0
    1.9372    1.1022   -2.1796 O   0  0
    2.0461   -0.2670   -1.7569 C   0  0
    1.1594   -0.5127   -0.5146 C   0  0
    1.2308   -1.9705   -0.0086 C   0  0
    0.3444   -2.2160    1.2340 C   0  0  2  0  0  0
   -1.0082   -1.9778    1.0194 C   0  0
   -2.0090   -2.3274    1.9435 C   0  0
   -3.3021   -2.0612    1.6704 N   0  0
   -3.6355   -1.4599    0.5112 C   0  0
   -2.6349   -1.1103   -0.4128 C   0  0
   -1.3418   -1.3764   -0.1398 N   0  0
    4.9268    4.2923    1.2748 F   0  0
  1  2  2  0  0  0
  2  3  1  0  0  0
  2  4  1  0  0  0
  3 24  1  0  0  0
  4  5  1  0  0  0
  6  7  1  0  0  0
  6  8  1  0  0  0
  6 19  1  0  0  0
  9 10  2  0  0  0
  9 14  1  0  0  0
 10 11  1  0  0  0
 10 15  1  0  0  0
 11 12  2  0  0  0
 12 13  1  0  0  0
 13 14  2  0  0  0
 13 26  1  0  0  0
 15 16  1  0  0  0
 16 17  1  0  0  0
 17 18  1  0  0  0
 18 19  1  0  0  0
 19 20  1  0  0  0
 20 21  2  0  0  0
 20 25  1  0  0  0
 21 22  1  0  0  0
 22 23  2  0  0  0
 23 24  1  0  0  0
 24 25  2  0  0  0
M  END
$$$$

