Mol-8
  DSViewer          3D                             0

 31 34  0  0  0  0  0  0  0  0999 V2000
   -4.2123    1.2477   -0.8399 O   0  0
   -3.8614    0.3008   -1.5116 C   0  0
   -2.4701   -0.3148   -1.6222 C   0  0
   -4.7526   -0.3439   -2.2825 O   0  0
   -5.5286    0.2040   -2.0498 H   0  0
    1.1687   -1.3855    2.2222 N   0  0
    1.3252   -2.0390    2.9028 H   0  0
    0.4825   -0.7858    2.5104 H   0  0
    2.4703    3.0988   -0.5816 C   0  0
    3.1079    2.0806   -1.3108 C   0  0
    4.4893    1.8634   -1.1759 C   0  0
    5.2466    2.6650   -0.3066 C   0  0
    4.6182    3.6822    0.4258 C   0  0
    3.2370    3.8970    0.2876 C   0  0
    2.3683    1.2809   -2.1730 O   0  0
    2.8160   -1.1285   -2.0098 C   0  0
    2.3344   -2.1371   -1.0722 C   0  0
    1.5216   -1.5163   -0.2071 C   0  0
    1.4024   -0.1219   -0.4826 O   0  0
    2.2456    0.0128   -1.6205 C   0  0
    0.7413   -2.0604    0.9753 C   0  0  2  0  0  0
   -2.8674   -2.0855    1.5602 C   0  0
   -4.0259   -2.4566    2.3884 C   0  0
   -5.1636   -2.0324    1.8128 C   0  0
   -4.9803   -1.1709    0.2677 S   0  0
   -3.2475   -1.4001    0.4102 C   0  0
   -2.2903   -0.9571   -0.5145 C   0  0
   -0.9296   -1.2187   -0.2588 C   0  0
   -0.5446   -1.9140    0.9080 C   0  0
   -1.5173   -2.3534    1.8285 C   0  0
    5.3579    4.4710    1.2814 F   0  0
  1  2  2  0  0  0
  2  3  1  0  0  0
  2  4  1  0  0  0
  3 27  1  0  0  0
  4  5  1  0  0  0
  6  7  1  0  0  0
  6  8  1  0  0  0
  6 21  1  0  0  0
  9 10  2  0  0  0
  9 14  1  0  0  0
 10 11  1  0  0  0
 10 15  1  0  0  0
 11 12  2  0  0  0
 12 13  1  0  0  0
 13 14  2  0  0  0
 13 31  1  0  0  0
 15 20  1  0  0  0
 16 17  1  0  0  0
 16 20  2  0  0  0
 17 18  2  0  0  0
 18 19  1  0  0  0
 18 21  1  0  0  0
 19 20  1  0  0  0
 21 29  1  0  0  0
 22 23  1  0  0  0
 22 26  2  0  0  0
 22 30  1  0  0  0
 23 24  2  0  0  0
 24 25  1  0  0  0
 25 26  1  0  0  0
 26 27  1  0  0  0
 27 28  2  0  0  0
 28 29  1  0  0  0
 29 30  2  0  0  0
M  END
$$$$