Mol-22
  DSViewer          3D                             0

 26 27  0  0  0  0  0  0  0  0999 V2000
   -4.6434    1.0690   -0.8465 O   0  0
   -4.2925    0.1221   -1.5182 C   0  0
   -2.9013   -0.4935   -1.6288 C   0  0
   -5.1837   -0.5226   -2.2891 O   0  0
   -5.9597    0.0253   -2.0564 H   0  0
    0.7733   -1.3456    2.3516 N   0  0
    0.9451   -1.8799    3.1264 H   0  0
    0.0812   -0.7161    2.5476 H   0  0
    2.0392    2.9201   -0.5882 C   0  0
    2.6768    1.9019   -1.3175 C   0  0
    4.0582    1.6847   -1.1825 C   0  0
    4.8155    2.4863   -0.3133 C   0  0
    4.1871    3.5035    0.4191 C   0  0
    2.8059    3.7183    0.2810 C   0  0
    1.9372    1.1022   -2.1796 O   0  0
    2.0461   -0.2670   -1.7569 C   0  0
    1.1594   -0.5127   -0.5146 C   0  0
    1.2308   -1.9705   -0.0086 C   0  0
    0.3444   -2.2160    1.2340 C   0  0  2  0  0  0
   -1.0082   -1.9778    1.0194 C   0  0
   -2.0090   -2.3274    1.9435 C   0  0
   -3.3021   -2.0612    1.6704 N   0  0
   -3.6355   -1.4599    0.5112 C   0  0
   -2.6349   -1.1103   -0.4128 C   0  0
   -1.3418   -1.3764   -0.1398 N   0  0
    4.9268    4.2923    1.2748 F   0  0
  1  2  2  0  0  0
  2  3  1  0  0  0
  2  4  1  0  0  0
  3 24  1  0  0  0
  4  5  1  0  0  0
  6  7  1  0  0  0
  6  8  1  0  0  0
  6 19  1  0  0  0
  9 10  2  0  0  0
  9 14  1  0  0  0
 10 11  1  0  0  0
 10 15  1  0  0  0
 11 12  2  0  0  0
 12 13  1  0  0  0
 13 14  2  0  0  0
 13 26  1  0  0  0
 15 16  1  0  0  0
 16 17  1  0  0  0
 17 18  1  0  0  0
 18 19  1  0  0  0
 19 20  1  0  0  0
 20 21  2  0  0  0
 20 25  1  0  0  0
 21 22  1  0  0  0
 22 23  2  0  0  0
 23 24  1  0  0  0
 24 25  2  0  0  0
M  END
$$$$
