lig3.sd
  copyright 2023 drugdesign.org                             0

 29 31  0  0  0  0  0  0  0  0999 V2000
    1.3967   -0.5646   -7.1863 O   0  0
    1.2813    0.4435   -6.2199 C   0  0  2  0  0  0
    1.1540    1.7874   -7.0275 C   0  0  1  0  0  0
   -0.2421    1.7544   -7.7672 C   0  0
   -1.4985    1.6093   -7.1445 C   0  0
   -2.7197    1.5735   -7.8571 C   0  0
   -2.7205    1.6829   -9.2359 C   0  0
   -3.9179    1.6101  -10.0596 C   0  0
   -4.0400    0.1874  -10.1920 O   0  0
   -5.1278   -0.2934  -10.8872 C   0  0
   -5.3536   -1.6686  -11.1672 C   0  0
   -4.0087   -2.3979  -11.0173 C   0  0
   -3.8891   -3.7162  -11.3606 C   0  0
   -6.5837   -2.1795  -11.5383 C   0  0
   -7.9679   -1.6156  -11.8218 C   0  0
   -6.6287   -3.6569  -11.7353 C   0  0
   -5.2249   -4.5247  -11.6718 C   0  0
   -6.0114    0.4092  -11.3428 O   0  0
   -1.5015    1.8277   -9.8646 C   0  0
   -0.2961    1.8604   -9.1485 C   0  0
    1.1737    2.9485   -6.0138 C   0  0  2  0  0  0
    0.9594    4.2774   -6.6466 C   0  0
    2.0284    4.5092   -7.5389 O   0  0
    1.8071    5.7342   -8.3273 C   0  0
    2.3368    2.9250   -5.0313 C   0  0
    2.4676    1.5849   -4.3297 N   0  0
    2.5084    0.4123   -5.2662 C   0  0
    0.5197   -1.6374   -7.2470 C   0  0
    3.3188    1.5891   -3.7751 H   0  0
  1  2  1  0  0  0
  1 28  1  0  0  0
  2  3  1  0  0  0
  2 27  1  0  0  0
  3  4  1  0  0  0
  3 21  1  0  0  0
  4  5  2  0  0  0
  4 20  1  0  0  0
  5  6  1  0  0  0
  6  7  2  0  0  0
  7  8  1  0  0  0
  7 19  1  0  0  0
  8  9  1  0  0  0
  9 10  1  0  0  0
 10 11  1  0  0  0
 10 18  2  0  0  0
 11 12  2  0  0  0
 11 14  1  0  0  0
 12 13  1  0  0  0
 13 17  2  0  0  0
 14 15  1  0  0  0
 14 16  2  0  0  0
 16 17  1  0  0  0
 19 20  2  0  0  0
 21 22  1  0  0  0
 21 25  1  0  0  0
 22 23  1  0  0  0
 23 24  1  0  0  0
 25 26  1  0  0  0
 26 27  1  0  0  0
 26 29  1  0  0  0
M  END
$$$$
