RU25961
  copyright 2023 drugdesign.org                             0

 43 45  0  0  0  0  0  0  0  0999 V2000
  -10.8769    7.1750    0.3552 C   0  0
   -9.7126    7.0519    1.1296 C   0  0
   -9.2053    5.8048    1.5059 C   0  0
   -9.8634    4.6401    1.1002 C   0  0
  -11.0193    4.7419    0.3173 C   0  0
  -11.5216    5.9969   -0.0522 C   0  0
  -12.7544    6.1758   -0.9289 C   0  0  1  0  0  0
  -11.3502    8.4108   -0.0051 O   0  0
  -12.6909    8.4704   -0.3902 C   0  0  2  0  0  0
  -12.7797    7.5216   -1.4120 O   0  0
   -9.2406    3.0942    1.5651 Cl  0  0
  -12.6215    5.2792   -2.1890 C   0  0
  -14.0690    5.8538   -0.2049 C   0  0
  -15.0646    6.8399   -0.1195 C   0  0
  -16.2752    6.5996    0.5393 C   0  0
  -16.5148    5.3588    1.1359 C   0  0
  -15.5318    4.3665    1.0717 C   0  0
  -14.3221    4.6173    0.4099 C   0  0
  -15.7938    2.8242    1.8136 Cl  0  0
   -9.1842    7.9684    1.4543 H   0  0
   -8.2861    5.7529    2.1220 H   0  0
  -11.5403    3.8220   -0.0055 H   0  0
  -13.3754    8.2482    0.4734 H   0  0
  -13.4058    5.5055   -2.9533 H   0  0
  -11.6343    5.4375   -2.6913 H   0  0
  -12.7147    4.1928   -1.9468 H   0  0
  -14.9037    7.8359   -0.5724 H   0  0
  -17.0446    7.3937    0.5910 H   0  0
  -17.4750    5.1764    1.6567 H   0  0
  -13.5625    3.8162    0.3882 H   0  0
  -12.9796    9.8424   -0.9228 C   0  0
  -12.9424   10.7307    0.1167 O   0  0
  -13.1553   10.1081   -2.1034 O   0  0
  -13.1112   12.0907   -0.2522 C   0  0
  -14.2433   13.2251   -0.3911 C   0  0
  -12.4684   12.5380    0.3696 H   0  0
  -12.7320   12.0857   -1.1775 H   0  0
  -14.7875   14.6845   -0.5317 C   0  0
  -14.6953   12.8480   -1.1994 H   0  0
  -14.7630   12.9794    0.4272 H   0  0
  -15.7864   14.6658   -0.5718 H   0  0
  -14.4283   15.0954   -1.3697 H   0  0
  -14.4961   15.2268    0.2564 H   0  0
  1  2  2  0  0  0
  1  6  1  0  0  0
  1  8  1  0  0  0
  2  3  1  0  0  0
  2 20  1  0  0  0
  3  4  2  0  0  0
  3 21  1  0  0  0
  4  5  1  0  0  0
  4 11  1  0  0  0
  5  6  2  0  0  0
  5 22  1  0  0  0
  6  7  1  0  0  0
  7 10  1  0  0  0
  7 12  1  0  0  0
  7 13  1  0  0  0
  8  9  1  0  0  0
  9 10  1  0  0  0
  9 23  1  0  0  0
  9 31  1  0  0  0
 12 24  1  0  0  0
 12 25  1  0  0  0
 12 26  1  0  0  0
 13 14  2  0  0  0
 13 18  1  0  0  0
 14 15  1  0  0  0
 14 27  1  0  0  0
 15 16  2  0  0  0
 15 28  1  0  0  0
 16 17  1  0  0  0
 16 29  1  0  0  0
 17 18  2  0  0  0
 17 19  1  0  0  0
 18 30  1  0  0  0
 31 32  1  0  0  0
 31 33  2  0  0  0
 32 34  1  0  0  0
 34 35  1  0  0  0
 34 36  1  0  0  0
 34 37  1  0  0  0
 35 38  1  0  0  0
 35 39  1  0  0  0
 35 40  1  0  0  0
 38 41  1  0  0  0
 38 42  1  0  0  0
 38 43  1  0  0  0
M  END
$$$$
