treloxinate
  DSViewer          3D                             0

 40 42  0  0  0  0  0  0  0  0999 V2000
   -3.6485    3.1485    1.6121 Cl  0  0
    2.0294    4.4531    0.2339 C   0  0
    1.3575    5.4367   -0.5065 C   0  0
    0.1923    5.0333   -1.3900 C   0  0
   -1.0877    5.3054   -0.6228 C   0  0
   -1.7170    4.2522    0.0565 C   0  0
   -2.8935    4.4665    0.7831 C   0  0
   -3.4404    5.7511    0.8295 C   0  0
   -2.8045    6.7973    0.1549 C   0  0
   -1.6207    6.6078   -0.5780 C   0  0
   -1.0356    7.6699   -1.2279 O   0  0
   -0.0268    8.3240   -0.5110 C   0  0
    1.1099    7.7853   -1.1251 O   0  0
    1.7411    6.7885   -0.4175 C   0  0
    2.8231    7.0995    0.4236 C   0  0
    3.5011    6.1237    1.1600 C   0  0
    3.1022    4.7881    1.0676 C   0  0
    3.9130    3.5539    1.9699 Cl  0  0
   -0.0884    9.7804   -0.8608 C   0  0
    0.0869   10.1949   -1.9977 O   0  0
   -0.3605   10.5215    0.2572 O   0  0
   -0.4420   11.9212    0.0389 C   0  0
    1.7031    3.3987    0.1578 H   0  0
    0.2638    3.9562   -1.6815 H   0  0
    0.2086    5.5878   -2.3611 H   0  0
   -1.2737    3.2393    0.0178 H   0  0
   -4.3708    5.9498    1.3966 H   0  0
   -3.2487    7.8096    0.2033 H   0  0
   -0.0701    8.1468    0.5993 H   0  0
    3.1497    8.1533    0.5093 H   0  0
    4.3471    6.4178    1.8118 H   0  0
   -1.3791   13.2358   -0.1091 C   0  0
    0.1547   12.2331    0.7783 H   0  0
    0.0481   11.9758   -0.8311 H   0  0
   -1.3912   14.8341   -0.2388 C   0  0
   -1.8915   12.9914   -0.9323 H   0  0
   -1.9640   13.1228    0.6941 H   0  0
   -2.3353   15.1563   -0.3069 H   0  0
   -0.8866   15.1063   -1.0581 H   0  0
   -0.9591   15.2377    0.5678 H   0  0
  1  7  1  0  0  0
  2 17  2  0  0  0
  2  3  1  0  0  0
  2 23  1  0  0  0
  3  4  1  0  0  0
  3 14  2  0  0  0
  4  5  1  0  0  0
  4 24  1  0  0  0
  4 25  1  0  0  0
  5  6  1  0  0  0
  5 10  2  0  0  0
  6  7  2  0  0  0
  6 26  1  0  0  0
  7  8  1  0  0  0
  8  9  2  0  0  0
  8 27  1  0  0  0
  9 10  1  0  0  0
  9 28  1  0  0  0
 10 11  1  0  0  0
 11 12  1  0  0  0
 12 13  1  0  0  0
 12 19  1  0  0  0
 12 29  1  0  0  0
 13 14  1  0  0  0
 14 15  1  0  0  0
 15 16  2  0  0  0
 15 30  1  0  0  0
 16 17  1  0  0  0
 16 31  1  0  0  0
 17 18  1  0  0  0
 19 20  2  0  0  0
 19 21  1  0  0  0
 21 22  1  0  0  0
 22 32  1  0  0  0
 22 33  1  0  0  0
 22 34  1  0  0  0
 32 35  1  0  0  0
 32 36  1  0  0  0
 32 37  1  0  0  0
 35 38  1  0  0  0
 35 39  1  0  0  0
 35 40  1  0  0  0
M  END
$$$$