#	copyright 2023 drugdesign.org
#	Creation time:	2024-01-11T11:24:26Z

@<SCITEGIC>ROOT_PROPERTY
Ligand:MaximumNumberOfAtoms
SciTegic.value.IntegerValue
100

@<SCITEGIC>ROOT_PROPERTY
Ligand:HydrogenAtomsCountTowardsMaximum
SciTegic.value.BooleanValue
FALSE

@<TRIPOS>MOLECULE
ringsize3
   43    46     0 0 0
SMALL
USER_CHARGES


@<TRIPOS>ATOM
      1 C1           -0.828000   -1.956600    1.000200 C.ar     1 SUBUNIT   -0.0143
      2 C2           -0.351600   -3.133600    0.401000 C.ar     1 SUBUNIT   -0.0773
      3 C3           -1.092200   -3.641800   -0.675000 C.ar     1 SUBUNIT   -0.0749
      4 C4           -2.241300   -3.008300   -1.145100 C.ar     1 SUBUNIT   -0.0638
      5 C5           -2.687300   -1.836200   -0.542100 C.ar     1 SUBUNIT   -0.0613
      6 C6           -1.976200   -1.313600    0.534600 C.ar     1 SUBUNIT   -0.0509
      7 N7            0.753500   -3.787700    0.796300 N.pl3    1 SUBUNIT    0.3359
      8 S8            0.029600   -1.246600    2.380800 S.3      1 SUBUNIT   -0.0631
      9 C9            1.532200   -4.036200    4.879900 C.ar     1 SUBUNIT   -0.0750
     10 C10           1.796600   -5.115700    4.036700 C.ar     1 SUBUNIT   -0.0938
     11 C11           1.515000   -4.994400    2.674700 C.ar     1 SUBUNIT   -0.0886
     12 C12           0.989100   -3.821500    2.117200 C.ar     1 SUBUNIT   -0.0787
     13 C13           0.726800   -2.757000    2.991600 C.ar     1 SUBUNIT   -0.0144
     14 C14           0.995700   -2.863200    4.355900 C.ar     1 SUBUNIT   -0.0523
     15 S15           2.453200   -6.636100    4.631300 S.o      1 SUBUNIT    0.7990
     16 C16           3.949200   -5.998500    5.433500 C.3      1 SUBUNIT   -0.0828
     17 C17           1.701000   -4.356600   -0.171200 C.3      1 SUBUNIT   -0.0813
     18 C18           2.102500   -3.350800   -1.263500 C.3      1 SUBUNIT   -0.0807
     19 C19           3.146400   -3.927400   -2.203400 C.3      1 SUBUNIT   -0.0959
     20 N20           3.256700   -3.198200   -3.403000 N.3      1 SUBUNIT    0.2971
     21 C21           4.582200   -3.010600   -3.950400 C.3      1 SUBUNIT   -0.1033
     22 O22           1.457400   -6.868700    5.699900 O.2      1 SUBUNIT   -0.6146
     23 C23           2.624000   -4.426200   -3.677200 C.3      1 SUBUNIT   -0.1035
     24 H24          -0.790500   -4.571900   -1.183600 H        1 SUBUNIT    0.0606
     25 H25          -2.800200   -3.435100   -1.995300 H        1 SUBUNIT    0.0622
     26 H26          -3.595800   -1.330300   -0.910300 H        1 SUBUNIT    0.0623
     27 H27          -2.336900   -0.387000    1.012700 H        1 SUBUNIT    0.0633
     28 H28           1.725700   -4.092500    5.964000 H        1 SUBUNIT    0.0608
     29 H29           1.705700   -5.866900    2.027500 H        1 SUBUNIT    0.0591
     30 H30           0.784300   -2.021400    5.037400 H        1 SUBUNIT    0.0633
     31 H31           4.519700   -6.859100    5.849000 H        1 SUBUNIT    0.0080
     32 H32           4.581700   -5.477700    4.679700 H        1 SUBUNIT    0.0080
     33 H33           3.705400   -5.302000    6.266300 H        1 SUBUNIT    0.0080
     34 H34           2.649400   -4.647800    0.337700 H        1 SUBUNIT    0.0071
     35 H35           1.283900   -5.287300   -0.621300 H        1 SUBUNIT    0.0071
     36 H36           1.207600   -3.020600   -1.839500 H        1 SUBUNIT    0.0231
     37 H37           2.533600   -2.440200   -0.783700 H        1 SUBUNIT    0.0231
     38 H38           4.108700   -4.299500   -1.857100 H        1 SUBUNIT    0.0075
     39 H39           4.498100   -2.725000   -5.024100 H        1 SUBUNIT    0.0023
     40 H40           5.085800   -2.177300   -3.408600 H        1 SUBUNIT    0.0023
     41 H41           5.226400   -3.917900   -3.875900 H        1 SUBUNIT    0.0023
     42 H42           3.247600   -5.106000   -4.252600 H        1 SUBUNIT    0.0042
     43 H43           1.581400   -4.267000   -3.942700 H        1 SUBUNIT    0.0042
@<TRIPOS>BOND
     1    1    2 ar
     2    1    6 ar
     3    1    8 1
     4    2    3 ar
     5    2    7 1
     6    3    4 ar
     7    3   24 1
     8    4    5 ar
     9    4   25 1
    10    5    6 ar
    11    5   26 1
    12    6   27 1
    13    7   12 1
    14    7   17 1
    15    8   13 1
    16    9   10 ar
    17    9   14 ar
    18    9   28 1
    19   10   11 ar
    20   10   15 1
    21   11   12 ar
    22   11   29 1
    23   12   13 ar
    24   13   14 ar
    25   14   30 1
    26   15   16 1
    27   15   22 2
    28   16   31 1
    29   16   32 1
    30   16   33 1
    31   17   18 1
    32   17   34 1
    33   17   35 1
    34   18   19 1
    35   18   36 1
    36   18   37 1
    37   19   20 1
    38   19   23 1
    39   19   38 1
    40   20   23 1
    41   20   21 1
    42   21   39 1
    43   21   40 1
    44   21   41 1
    45   23   42 1
    46   23   43 1
@<SCITEGIC>ATOM_PROPERTY
Formal Charge
SciTegic.value.StringValue
1 0
2 0
3 0
4 0
5 0
6 0
7 0
8 0
9 0
10 0
11 0
12 0
13 0
14 0
15 0
16 0
17 0
18 0
19 0
20 0
21 0
22 0
23 0
24 0
25 0
26 0
27 0
28 0
29 0
30 0
31 0
32 0
33 0
34 0
35 0
36 0
37 0
38 0
39 0
40 0
41 0
42 0
43 0

@<SCITEGIC>ATOM_PROPERTY
pdb_tempFactor
SciTegic.value.DoubleValue
1 0.00
2 0.00
3 0.00
4 0.00
5 0.00
6 0.00
7 0.00
8 0.00
9 0.00
10 0.00
11 0.00
12 0.00
13 0.00
14 0.00
15 0.00
16 0.00
17 0.00
18 0.00
19 0.00
20 0.00
21 0.00
22 0.00
23 0.00
24 0.00
25 0.00
26 0.00
27 0.00
28 0.00
29 0.00
30 0.00
31 0.00
32 0.00
33 0.00
34 0.00
35 0.00
36 0.00
37 0.00
38 0.00
39 0.00
40 0.00
41 0.00
42 0.00
43 0.00

@<SCITEGIC>ATOM_PROPERTY
pdb_occupancy
SciTegic.value.DoubleValue
1 1.00
2 1.00
3 1.00
4 1.00
5 1.00
6 1.00
7 1.00
8 1.00
9 1.00
10 1.00
11 1.00
12 1.00
13 1.00
14 1.00
15 1.00
16 1.00
17 1.00
18 1.00
19 1.00
20 1.00
21 1.00
22 1.00
23 1.00
24 1.00
25 1.00
26 1.00
27 1.00
28 1.00
29 1.00
30 1.00
31 1.00
32 1.00
33 1.00
34 1.00
35 1.00
36 1.00
37 1.00
38 1.00
39 1.00
40 1.00
41 1.00
42 1.00
43 1.00

#	copyright 2023 drugdesign.org
#	Creation time:	2024-01-11T11:24:26Z

@<SCITEGIC>ROOT_PROPERTY
Ligand:MaximumNumberOfAtoms
SciTegic.value.IntegerValue
100

@<SCITEGIC>ROOT_PROPERTY
Ligand:HydrogenAtomsCountTowardsMaximum
SciTegic.value.BooleanValue
FALSE

@<TRIPOS>MOLECULE
ringsize4
   46    49     0 0 0
SMALL
USER_CHARGES


@<TRIPOS>ATOM
      1 C1           -0.742800   -1.893400    0.921900 C.ar     1 SUBUNIT   -0.0143
      2 C2           -0.316100   -3.090600    0.325200 C.ar     1 SUBUNIT   -0.0773
      3 C3           -1.092200   -3.583400   -0.732700 C.ar     1 SUBUNIT   -0.0749
      4 C4           -2.228400   -2.916500   -1.188000 C.ar     1 SUBUNIT   -0.0638
      5 C5           -2.624700   -1.725200   -0.588000 C.ar     1 SUBUNIT   -0.0613
      6 C6           -1.877500   -1.217000    0.471000 C.ar     1 SUBUNIT   -0.0509
      7 N7            0.774400   -3.776600    0.706800 N.pl3    1 SUBUNIT    0.3360
      8 S8            0.163100   -1.200300    2.280000 S.3      1 SUBUNIT   -0.0631
      9 C9            1.615000   -4.017000    4.778800 C.ar     1 SUBUNIT   -0.0750
     10 C10           1.828900   -5.111900    3.941100 C.ar     1 SUBUNIT   -0.0938
     11 C11           1.527900   -4.992800    2.583000 C.ar     1 SUBUNIT   -0.0886
     12 C12           1.031600   -3.807900    2.023900 C.ar     1 SUBUNIT   -0.0787
     13 C13           0.820000   -2.727900    2.892800 C.ar     1 SUBUNIT   -0.0144
     14 C14           1.108700   -2.831200    4.253300 C.ar     1 SUBUNIT   -0.0523
     15 S15           2.444700   -6.648300    4.538200 S.o      1 SUBUNIT    0.7990
     16 C16           3.972400   -6.054500    5.313700 C.3      1 SUBUNIT   -0.0828
     17 C17           1.680300   -4.392600   -0.272800 C.3      1 SUBUNIT   -0.0782
     18 C18           2.089100   -3.416100   -1.389200 C.3      1 SUBUNIT   -0.0511
     19 C19           3.075200   -4.069500   -2.357400 C.3      1 SUBUNIT    0.0088
     20 N20           3.311800   -3.292900   -3.572700 N.3      1 SUBUNIT   -0.3033
     21 C21           4.474500   -2.436000   -3.561400 C.3      1 SUBUNIT   -0.0131
     22 O22           1.457600   -6.840000    5.622900 O.2      1 SUBUNIT   -0.6146
     23 C23           3.400500   -4.485500   -4.412100 C.3      1 SUBUNIT   -0.0004
     24 C24           2.514800   -5.151100   -3.321200 C.3      1 SUBUNIT   -0.0248
     25 H25          -0.830600   -4.527100   -1.238500 H        1 SUBUNIT    0.0606
     26 H26          -2.816200   -3.332000   -2.024100 H        1 SUBUNIT    0.0622
     27 H27          -3.522700   -1.192800   -0.944600 H        1 SUBUNIT    0.0623
     28 H28          -2.198800   -0.274800    0.946800 H        1 SUBUNIT    0.0633
     29 H29           1.825100   -4.070400    5.859900 H        1 SUBUNIT    0.0608
     30 H30           1.678500   -5.876800    1.940900 H        1 SUBUNIT    0.0591
     31 H31           0.937200   -1.977100    4.930500 H        1 SUBUNIT    0.0633
     32 H32           4.521300   -6.930600    5.725800 H        1 SUBUNIT    0.0080
     33 H33           4.609800   -5.558800    4.547300 H        1 SUBUNIT    0.0080
     34 H34           3.763900   -5.345900    6.145700 H        1 SUBUNIT    0.0080
     35 H35           2.628800   -4.707300    0.221500 H        1 SUBUNIT    0.0072
     36 H36           1.219600   -5.316600   -0.692700 H        1 SUBUNIT    0.0072
     37 H37           1.201500   -3.059500   -1.960500 H        1 SUBUNIT    0.0264
     38 H38           2.569000   -2.515900   -0.936900 H        1 SUBUNIT    0.0264
     39 H39           4.027500   -4.404000   -1.876300 H        1 SUBUNIT    0.0467
     40 H40           4.610400   -1.976500   -4.567400 H        1 SUBUNIT    0.0394
     41 H41           4.330500   -1.617500   -2.819100 H        1 SUBUNIT    0.0394
     42 H42           5.401000   -2.996600   -3.298000 H        1 SUBUNIT    0.0394
     43 H43           2.918600   -4.349800   -5.408700 H        1 SUBUNIT    0.0431
     44 H44           4.428800   -4.918800   -4.453700 H        1 SUBUNIT    0.0431
     45 H45           2.808600   -6.195000   -3.060300 H        1 SUBUNIT    0.0296
     46 H46           1.421500   -5.044600   -3.522200 H        1 SUBUNIT    0.0296
@<TRIPOS>BOND
     1    1    2 ar
     2    1    6 ar
     3    1    8 1
     4    2    3 ar
     5    2    7 1
     6    3    4 ar
     7    3   25 1
     8    4    5 ar
     9    4   26 1
    10    5    6 ar
    11    5   27 1
    12    6   28 1
    13    7   12 1
    14    7   17 1
    15    8   13 1
    16    9   10 ar
    17    9   14 ar
    18    9   29 1
    19   10   11 ar
    20   10   15 1
    21   11   12 ar
    22   11   30 1
    23   12   13 ar
    24   13   14 ar
    25   14   31 1
    26   15   16 1
    27   15   22 2
    28   16   32 1
    29   16   33 1
    30   16   34 1
    31   17   18 1
    32   17   35 1
    33   17   36 1
    34   18   19 1
    35   18   37 1
    36   18   38 1
    37   19   20 1
    38   19   24 1
    39   19   39 1
    40   20   23 1
    41   20   21 1
    42   21   40 1
    43   21   41 1
    44   21   42 1
    45   23   24 1
    46   23   43 1
    47   23   44 1
    48   24   45 1
    49   24   46 1
@<SCITEGIC>ATOM_PROPERTY
Formal Charge
SciTegic.value.StringValue
1 0
2 0
3 0
4 0
5 0
6 0
7 0
8 0
9 0
10 0
11 0
12 0
13 0
14 0
15 0
16 0
17 0
18 0
19 0
20 0
21 0
22 0
23 0
24 0
25 0
26 0
27 0
28 0
29 0
30 0
31 0
32 0
33 0
34 0
35 0
36 0
37 0
38 0
39 0
40 0
41 0
42 0
43 0
44 0
45 0
46 0

@<SCITEGIC>ATOM_PROPERTY
pdb_tempFactor
SciTegic.value.DoubleValue
1 0.00
2 0.00
3 0.00
4 0.00
5 0.00
6 0.00
7 0.00
8 0.00
9 0.00
10 0.00
11 0.00
12 0.00
13 0.00
14 0.00
15 0.00
16 0.00
17 0.00
18 0.00
19 0.00
20 0.00
21 0.00
22 0.00
23 0.00
24 0.00
25 0.00
26 0.00
27 0.00
28 0.00
29 0.00
30 0.00
31 0.00
32 0.00
33 0.00
34 0.00
35 0.00
36 0.00
37 0.00
38 0.00
39 0.00
40 0.00
41 0.00
42 0.00
43 0.00
44 0.00
45 0.00
46 0.00

@<SCITEGIC>ATOM_PROPERTY
pdb_occupancy
SciTegic.value.DoubleValue
1 1.00
2 1.00
3 1.00
4 1.00
5 1.00
6 1.00
7 1.00
8 1.00
9 1.00
10 1.00
11 1.00
12 1.00
13 1.00
14 1.00
15 1.00
16 1.00
17 1.00
18 1.00
19 1.00
20 1.00
21 1.00
22 1.00
23 1.00
24 1.00
25 1.00
26 1.00
27 1.00
28 1.00
29 1.00
30 1.00
31 1.00
32 1.00
33 1.00
34 1.00
35 1.00
36 1.00
37 1.00
38 1.00
39 1.00
40 1.00
41 1.00
42 1.00
43 1.00
44 1.00
45 1.00
46 1.00

#	copyright 2023 drugdesign.org
#	Creation time:	2024-01-11T11:24:26Z

@<SCITEGIC>ROOT_PROPERTY
Ligand:MaximumNumberOfAtoms
SciTegic.value.IntegerValue
100

@<SCITEGIC>ROOT_PROPERTY
Ligand:HydrogenAtomsCountTowardsMaximum
SciTegic.value.BooleanValue
FALSE

@<TRIPOS>MOLECULE
ringsize5
   49    52     0 0 0
SMALL
USER_CHARGES


@<TRIPOS>ATOM
      1 C1           -0.514300   -2.002300    0.717900 C.ar     1 SUBUNIT   -0.0143
      2 C2           -0.211500   -3.296300    0.266300 C.ar     1 SUBUNIT   -0.0773
      3 C3           -1.033100   -3.850400   -0.722500 C.ar     1 SUBUNIT   -0.0749
      4 C4           -2.121100   -3.149900   -1.240600 C.ar     1 SUBUNIT   -0.0638
      5 C5           -2.407800   -1.867700   -0.779600 C.ar     1 SUBUNIT   -0.0613
      6 C6           -1.600300   -1.295000    0.200300 C.ar     1 SUBUNIT   -0.0509
      7 N7            0.828900   -4.025200    0.701900 N.pl3    1 SUBUNIT    0.3360
      8 S8            0.501100   -1.235400    1.957000 S.3      1 SUBUNIT   -0.0631
      9 C9            1.651100   -3.902600    4.769600 C.ar     1 SUBUNIT   -0.0750
     10 C10           1.701700   -5.105200    4.063000 C.ar     1 SUBUNIT   -0.0938
     11 C11           1.406000   -5.100700    2.699300 C.ar     1 SUBUNIT   -0.0886
     12 C12           1.086600   -3.924600    2.012300 C.ar     1 SUBUNIT   -0.0787
     13 C13           1.009800   -2.736500    2.750900 C.ar     1 SUBUNIT   -0.0144
     14 C14           1.295000   -2.725200    4.115800 C.ar     1 SUBUNIT   -0.0523
     15 S15           2.113200   -6.633400    4.831300 S.o      1 SUBUNIT    0.7990
     16 C16           3.782400   -6.195100    5.389800 C.3      1 SUBUNIT   -0.0828
     17 C17           1.845600   -4.424100   -0.290200 C.3      1 SUBUNIT   -0.0782
     18 C18           2.171300   -3.419600   -1.411900 C.3      1 SUBUNIT   -0.0512
     19 C19           3.169000   -3.884700   -2.505900 C.3      1 SUBUNIT    0.0076
     20 N20           3.428200   -2.880800   -3.533700 N.3      1 SUBUNIT   -0.3034
     21 C21           3.607100   -3.588400   -4.788400 C.3      1 SUBUNIT   -0.0018
     22 C22           4.559100   -2.014700   -3.240400 C.3      1 SUBUNIT   -0.0131
     23 H23          -0.838300   -4.865100   -1.108300 H        1 SUBUNIT    0.0606
     24 H24          -2.755900   -3.609900   -2.016900 H        1 SUBUNIT    0.0622
     25 H25          -3.267100   -1.309800   -1.188600 H        1 SUBUNIT    0.0623
     26 H26          -1.831900   -0.277500    0.558400 H        1 SUBUNIT    0.0633
     27 H27           1.867900   -3.864100    5.850200 H        1 SUBUNIT    0.0608
     28 H28           1.416600   -6.057100    2.149100 H        1 SUBUNIT    0.0591
     29 H29           1.235200   -1.787200    4.693600 H        1 SUBUNIT    0.0633
     30 H30           3.765100   -5.331900    6.092000 H        1 SUBUNIT    0.0080
     31 H31           4.221700   -7.072700    5.914600 H        1 SUBUNIT    0.0080
     32 H32           4.415000   -5.948600    4.507300 H        1 SUBUNIT    0.0080
     33 H33           2.790600   -4.646600    0.258100 H        1 SUBUNIT    0.0072
     34 H34           1.487000   -5.371000   -0.751800 H        1 SUBUNIT    0.0072
     35 H35           1.207300   -3.169100   -1.916000 H        1 SUBUNIT    0.0264
     36 H36           2.531700   -2.465200   -0.974500 H        1 SUBUNIT    0.0264
     37 H37           4.133400   -4.183000   -2.023900 H        1 SUBUNIT    0.0466
     38 H38           3.492400   -2.903800   -5.662500 H        1 SUBUNIT    0.0430
     39 H39           4.609900   -4.078300   -4.835100 H        1 SUBUNIT    0.0430
     40 H40           4.450300   -1.518500   -2.250400 H        1 SUBUNIT    0.0394
     41 H41           5.517400   -2.584100   -3.223400 H        1 SUBUNIT    0.0394
     42 H42           4.637700   -1.216400   -4.014300 H        1 SUBUNIT    0.0394
     43 O43           1.220800   -6.512600    6.004400 O.2      1 SUBUNIT   -0.6146
     44 C44           2.516700   -4.659300   -4.736800 C.3      1 SUBUNIT   -0.0389
     45 H45           2.667300   -5.478900   -5.479300 H        1 SUBUNIT    0.0280
     46 H46           1.515700   -4.193400   -4.905400 H        1 SUBUNIT    0.0280
     47 C47           2.648400   -5.125700   -3.281400 C.3      1 SUBUNIT   -0.0364
     48 H48           3.403000   -5.947400   -3.227500 H        1 SUBUNIT    0.0283
     49 H49           1.685000   -5.550400   -2.915800 H        1 SUBUNIT    0.0283
@<TRIPOS>BOND
     1    1    2 ar
     2    1    6 ar
     3    1    8 1
     4    2    3 ar
     5    2    7 1
     6    3    4 ar
     7    3   23 1
     8    4    5 ar
     9    4   24 1
    10    5    6 ar
    11    5   25 1
    12    6   26 1
    13    7   12 1
    14    7   17 1
    15    8   13 1
    16    9   10 ar
    17    9   14 ar
    18    9   27 1
    19   10   11 ar
    20   10   15 1
    21   11   12 ar
    22   11   28 1
    23   12   13 ar
    24   13   14 ar
    25   14   29 1
    26   15   16 1
    27   15   43 2
    28   16   30 1
    29   16   31 1
    30   16   32 1
    31   17   18 1
    32   17   33 1
    33   17   34 1
    34   18   19 1
    35   18   35 1
    36   18   36 1
    37   19   20 1
    38   19   37 1
    39   19   47 1
    40   20   21 1
    41   20   22 1
    42   21   38 1
    43   21   39 1
    44   21   44 1
    45   22   40 1
    46   22   41 1
    47   22   42 1
    48   44   45 1
    49   44   46 1
    50   44   47 1
    51   47   48 1
    52   47   49 1
@<SCITEGIC>ATOM_PROPERTY
Formal Charge
SciTegic.value.StringValue
1 0
2 0
3 0
4 0
5 0
6 0
7 0
8 0
9 0
10 0
11 0
12 0
13 0
14 0
15 0
16 0
17 0
18 0
19 0
20 0
21 0
22 0
23 0
24 0
25 0
26 0
27 0
28 0
29 0
30 0
31 0
32 0
33 0
34 0
35 0
36 0
37 0
38 0
39 0
40 0
41 0
42 0
43 0
44 0
45 0
46 0
47 0
48 0
49 0

@<SCITEGIC>ATOM_PROPERTY
pdb_tempFactor
SciTegic.value.DoubleValue
1 0.00
2 0.00
3 0.00
4 0.00
5 0.00
6 0.00
7 0.00
8 0.00
9 0.00
10 0.00
11 0.00
12 0.00
13 0.00
14 0.00
15 0.00
16 0.00
17 0.00
18 0.00
19 0.00
20 0.00
21 0.00
22 0.00
23 0.00
24 0.00
25 0.00
26 0.00
27 0.00
28 0.00
29 0.00
30 0.00
31 0.00
32 0.00
33 0.00
34 0.00
35 0.00
36 0.00
37 0.00
38 0.00
39 0.00
40 0.00
41 0.00
42 0.00
43 0.00
44 0.00
45 0.00
46 0.00
47 0.00
48 0.00
49 0.00

@<SCITEGIC>ATOM_PROPERTY
pdb_occupancy
SciTegic.value.DoubleValue
1 1.00
2 1.00
3 1.00
4 1.00
5 1.00
6 1.00
7 1.00
8 1.00
9 1.00
10 1.00
11 1.00
12 1.00
13 1.00
14 1.00
15 1.00
16 1.00
17 1.00
18 1.00
19 1.00
20 1.00
21 1.00
22 1.00
23 1.00
24 1.00
25 1.00
26 1.00
27 1.00
28 1.00
29 1.00
30 1.00
31 1.00
32 1.00
33 1.00
34 1.00
35 1.00
36 1.00
37 1.00
38 1.00
39 1.00
40 1.00
41 1.00
42 1.00
43 1.00
44 1.00
45 1.00
46 1.00
47 1.00
48 1.00
49 1.00

#	copyright 2023 drugdesign.org
#	Creation time:	2024-01-11T11:24:26Z

@<SCITEGIC>ROOT_PROPERTY
Ligand:MaximumNumberOfAtoms
SciTegic.value.IntegerValue
100

@<SCITEGIC>ROOT_PROPERTY
Ligand:HydrogenAtomsCountTowardsMaximum
SciTegic.value.BooleanValue
FALSE

@<TRIPOS>MOLECULE
ringsize6
   52    55     0 0 0
SMALL
USER_CHARGES


@<TRIPOS>ATOM
      1 C1           -0.615500   -1.706400    0.959700 C.ar     1 SUBUNIT   -0.0143
      2 C2           -0.351100   -2.944500    0.352500 C.ar     1 SUBUNIT   -0.0773
      3 C3           -1.248300   -3.369600   -0.636800 C.ar     1 SUBUNIT   -0.0749
      4 C4           -2.346900   -2.600500   -1.017000 C.ar     1 SUBUNIT   -0.0638
      5 C5           -2.581700   -1.371300   -0.408400 C.ar     1 SUBUNIT   -0.0613
      6 C6           -1.711500   -0.928100    0.583800 C.ar     1 SUBUNIT   -0.0509
      7 N7            0.694800   -3.728700    0.663400 N.pl3    1 SUBUNIT    0.3360
      8 S8            0.452300   -1.091400    2.235400 S.3      1 SUBUNIT   -0.0631
      9 C9            1.818100   -4.011500    4.663500 C.ar     1 SUBUNIT   -0.0750
     10 C10           1.862900   -5.129200    3.829800 C.ar     1 SUBUNIT   -0.0938
     11 C11           1.471200   -4.994200    2.496600 C.ar     1 SUBUNIT   -0.0886
     12 C12           1.047400   -3.772300    1.957800 C.ar     1 SUBUNIT   -0.0787
     13 C13           1.005900   -2.669200    2.822500 C.ar     1 SUBUNIT   -0.0144
     14 C14           1.387100   -2.787500    4.158700 C.ar     1 SUBUNIT   -0.0523
     15 S15           2.376100   -6.711600    4.403400 S.o      1 SUBUNIT    0.7990
     16 C16           4.012100   -6.258400    5.040900 C.3      1 SUBUNIT   -0.0828
     17 C17           1.468400   -4.432800   -0.371600 C.3      1 SUBUNIT   -0.0782
     18 C18           1.876400   -3.498000   -1.527800 C.3      1 SUBUNIT   -0.0512
     19 C19           2.914800   -4.082900   -2.517500 C.3      1 SUBUNIT    0.0076
     20 N20           3.183900   -3.174900   -3.641000 N.3      1 SUBUNIT   -0.3034
     21 C21           4.167800   -3.734500   -4.563100 C.3      1 SUBUNIT   -0.0018
     22 C22           3.621600   -1.851800   -3.211400 C.3      1 SUBUNIT   -0.0131
     23 O23           1.468500   -6.795600    5.568200 O.2      1 SUBUNIT   -0.6146
     24 C24           3.715600   -5.074700   -5.155800 C.3      1 SUBUNIT   -0.0403
     25 C25           2.443100   -5.454200   -3.046100 C.3      1 SUBUNIT   -0.0376
     26 C26           3.445900   -6.070200   -4.027400 C.3      1 SUBUNIT   -0.0506
     27 H27          -1.117000   -4.338800   -1.144700 H        1 SUBUNIT    0.0606
     28 H28          -3.033200   -2.964900   -1.800200 H        1 SUBUNIT    0.0622
     29 H29          -3.449500   -0.758400   -0.705600 H        1 SUBUNIT    0.0623
     30 H30          -1.905000    0.044800    1.067000 H        1 SUBUNIT    0.0633
     31 H31           2.105000   -4.075100    5.726200 H        1 SUBUNIT    0.0608
     32 H32           1.488500   -5.893700    1.858600 H        1 SUBUNIT    0.0591
     33 H33           1.349500   -1.914900    4.833100 H        1 SUBUNIT    0.0633
     34 H34           4.507300   -7.178000    5.425000 H        1 SUBUNIT    0.0080
     35 H35           4.628300   -5.835700    4.215600 H        1 SUBUNIT    0.0080
     36 H36           3.940600   -5.522500    5.872400 H        1 SUBUNIT    0.0080
     37 H37           2.419900   -4.823400    0.058800 H        1 SUBUNIT    0.0072
     38 H38           0.881800   -5.311400   -0.724500 H        1 SUBUNIT    0.0072
     39 H39           0.977900   -3.184000   -2.107700 H        1 SUBUNIT    0.0264
     40 H40           2.297500   -2.587400   -1.041500 H        1 SUBUNIT    0.0264
     41 H41           3.864400   -4.247600   -1.951400 H        1 SUBUNIT    0.0466
     42 H42           4.333500   -3.031200   -5.414700 H        1 SUBUNIT    0.0430
     43 H43           5.149100   -3.864400   -4.046500 H        1 SUBUNIT    0.0430
     44 H44           3.890600   -1.216900   -4.086900 H        1 SUBUNIT    0.0394
     45 H45           2.801500   -1.297800   -2.702500 H        1 SUBUNIT    0.0394
     46 H46           4.507000   -1.912500   -2.536400 H        1 SUBUNIT    0.0394
     47 H47           2.785700   -4.924000   -5.755200 H        1 SUBUNIT    0.0280
     48 H48           4.494800   -5.478400   -5.846600 H        1 SUBUNIT    0.0280
     49 H49           2.308500   -6.180100   -2.211000 H        1 SUBUNIT    0.0282
     50 H50           1.453500   -5.333700   -3.547400 H        1 SUBUNIT    0.0282
     51 H51           4.399400   -6.304200   -3.495900 H        1 SUBUNIT    0.0268
     52 H52           3.051400   -7.029400   -4.441500 H        1 SUBUNIT    0.0268
@<TRIPOS>BOND
     1    1    2 ar
     2    1    6 ar
     3    1    8 1
     4    2    3 ar
     5    2    7 1
     6    3    4 ar
     7    3   27 1
     8    4    5 ar
     9    4   28 1
    10    5    6 ar
    11    5   29 1
    12    6   30 1
    13    7   12 1
    14    7   17 1
    15    8   13 1
    16    9   10 ar
    17    9   14 ar
    18    9   31 1
    19   10   11 ar
    20   10   15 1
    21   11   12 ar
    22   11   32 1
    23   12   13 ar
    24   13   14 ar
    25   14   33 1
    26   15   16 1
    27   15   23 2
    28   16   34 1
    29   16   35 1
    30   16   36 1
    31   17   18 1
    32   17   37 1
    33   17   38 1
    34   18   19 1
    35   18   39 1
    36   18   40 1
    37   19   20 1
    38   19   25 1
    39   19   41 1
    40   20   21 1
    41   20   22 1
    42   21   24 1
    43   21   42 1
    44   21   43 1
    45   22   44 1
    46   22   45 1
    47   22   46 1
    48   24   26 1
    49   24   47 1
    50   24   48 1
    51   25   26 1
    52   25   49 1
    53   25   50 1
    54   26   51 1
    55   26   52 1
@<SCITEGIC>ATOM_PROPERTY
Formal Charge
SciTegic.value.StringValue
1 0
2 0
3 0
4 0
5 0
6 0
7 0
8 0
9 0
10 0
11 0
12 0
13 0
14 0
15 0
16 0
17 0
18 0
19 0
20 0
21 0
22 0
23 0
24 0
25 0
26 0
27 0
28 0
29 0
30 0
31 0
32 0
33 0
34 0
35 0
36 0
37 0
38 0
39 0
40 0
41 0
42 0
43 0
44 0
45 0
46 0
47 0
48 0
49 0
50 0
51 0
52 0

@<SCITEGIC>ATOM_PROPERTY
pdb_tempFactor
SciTegic.value.DoubleValue
1 0.00
2 0.00
3 0.00
4 0.00
5 0.00
6 0.00
7 0.00
8 0.00
9 0.00
10 0.00
11 0.00
12 0.00
13 0.00
14 0.00
15 0.00
16 0.00
17 0.00
18 0.00
19 0.00
20 0.00
21 0.00
22 0.00
23 0.00
24 0.00
25 0.00
26 0.00
27 0.00
28 0.00
29 0.00
30 0.00
31 0.00
32 0.00
33 0.00
34 0.00
35 0.00
36 0.00
37 0.00
38 0.00
39 0.00
40 0.00
41 0.00
42 0.00
43 0.00
44 0.00
45 0.00
46 0.00
47 0.00
48 0.00
49 0.00
50 0.00
51 0.00
52 0.00

@<SCITEGIC>ATOM_PROPERTY
pdb_occupancy
SciTegic.value.DoubleValue
1 1.00
2 1.00
3 1.00
4 1.00
5 1.00
6 1.00
7 1.00
8 1.00
9 1.00
10 1.00
11 1.00
12 1.00
13 1.00
14 1.00
15 1.00
16 1.00
17 1.00
18 1.00
19 1.00
20 1.00
21 1.00
22 1.00
23 1.00
24 1.00
25 1.00
26 1.00
27 1.00
28 1.00
29 1.00
30 1.00
31 1.00
32 1.00
33 1.00
34 1.00
35 1.00
36 1.00
37 1.00
38 1.00
39 1.00
40 1.00
41 1.00
42 1.00
43 1.00
44 1.00
45 1.00
46 1.00
47 1.00
48 1.00
49 1.00
50 1.00
51 1.00
52 1.00

#	copyright 2023 drugdesign.org
#	Creation time:	2024-01-11T11:24:26Z

@<SCITEGIC>ROOT_PROPERTY
Ligand:MaximumNumberOfAtoms
SciTegic.value.IntegerValue
100

@<SCITEGIC>ROOT_PROPERTY
Ligand:HydrogenAtomsCountTowardsMaximum
SciTegic.value.BooleanValue
FALSE

@<TRIPOS>MOLECULE
ringsize7
   55    58     0 0 0
SMALL
USER_CHARGES


@<TRIPOS>ATOM
      1 C1           -0.588600   -1.725100    0.896600 C.ar     1 SUBUNIT   -0.0143
      2 C2           -0.329600   -2.971800    0.305000 C.ar     1 SUBUNIT   -0.0773
      3 C3           -1.225700   -3.403500   -0.682400 C.ar     1 SUBUNIT   -0.0749
      4 C4           -2.317800   -2.632000   -1.076400 C.ar     1 SUBUNIT   -0.0638
      5 C5           -2.546700   -1.393900   -0.483900 C.ar     1 SUBUNIT   -0.0613
      6 C6           -1.677800   -0.944200    0.506500 C.ar     1 SUBUNIT   -0.0509
      7 N7            0.710400   -3.758200    0.629600 N.pl3    1 SUBUNIT    0.3360
      8 S8            0.477400   -1.102600    2.170000 S.3      1 SUBUNIT   -0.0631
      9 C9            1.807400   -4.004900    4.639200 C.ar     1 SUBUNIT   -0.0750
     10 C10           1.850400   -5.131900    3.818000 C.ar     1 SUBUNIT   -0.0938
     11 C11           1.468100   -5.009000    2.480900 C.ar     1 SUBUNIT   -0.0886
     12 C12           1.055000   -3.790400    1.926500 C.ar     1 SUBUNIT   -0.0787
     13 C13           1.015900   -2.677500    2.778500 C.ar     1 SUBUNIT   -0.0144
     14 C14           1.387800   -2.783700    4.118500 C.ar     1 SUBUNIT   -0.0523
     15 S15           2.349400   -6.711300    4.412000 S.o      1 SUBUNIT    0.7990
     16 C16           3.982600   -6.261800    5.059100 C.3      1 SUBUNIT   -0.0828
     17 C17           1.482900   -4.483300   -0.392900 C.3      1 SUBUNIT   -0.0782
     18 C18           1.884800   -3.574500   -1.573600 C.3      1 SUBUNIT   -0.0512
     19 C19           2.983400   -4.113000   -2.534200 C.3      1 SUBUNIT    0.0076
     20 N20           3.237300   -3.157200   -3.628000 N.3      1 SUBUNIT   -0.3034
     21 C21           4.198800   -3.617700   -4.630300 C.3      1 SUBUNIT   -0.0019
     22 C22           3.677200   -1.856300   -3.122900 C.3      1 SUBUNIT   -0.0131
     23 O23           1.431200   -6.778000    5.569600 O.2      1 SUBUNIT   -0.6146
     24 C24           3.637400   -4.679900   -5.588000 C.3      1 SUBUNIT   -0.0404
     25 C25           2.602100   -5.533000   -3.016800 C.3      1 SUBUNIT   -0.0376
     26 C26           3.749900   -6.340100   -3.640800 C.3      1 SUBUNIT   -0.0518
     27 H27          -1.098900   -4.380000   -1.177400 H        1 SUBUNIT    0.0606
     28 H28          -3.003400   -3.001600   -1.857800 H        1 SUBUNIT    0.0622
     29 H29          -3.409100   -0.779000   -0.792200 H        1 SUBUNIT    0.0623
     30 H30          -1.866900    0.035600    0.977300 H        1 SUBUNIT    0.0633
     31 H31           2.086900   -4.058700    5.704500 H        1 SUBUNIT    0.0608
     32 H32           1.484000   -5.915400    1.852800 H        1 SUBUNIT    0.0591
     33 H33           1.352000   -1.903400    4.782900 H        1 SUBUNIT    0.0633
     34 H34           4.468600   -7.180600    5.457000 H        1 SUBUNIT    0.0080
     35 H35           4.608700   -5.851500    4.235000 H        1 SUBUNIT    0.0080
     36 H36           3.909000   -5.517000    5.882500 H        1 SUBUNIT    0.0080
     37 H37           2.436900   -4.858600    0.045900 H        1 SUBUNIT    0.0072
     38 H38           0.890500   -5.369500   -0.715900 H        1 SUBUNIT    0.0072
     39 H39           0.988300   -3.316100   -2.183400 H        1 SUBUNIT    0.0264
     40 H40           2.241900   -2.638600   -1.086700 H        1 SUBUNIT    0.0264
     41 H41           3.916700   -4.214400   -1.928400 H        1 SUBUNIT    0.0466
     42 H42           4.469200   -2.759400   -5.291100 H        1 SUBUNIT    0.0430
     43 H43           5.154400   -3.943900   -4.156500 H        1 SUBUNIT    0.0430
     44 H44           3.904900   -1.150100   -3.954300 H        1 SUBUNIT    0.0394
     45 H45           2.873100   -1.334200   -2.559800 H        1 SUBUNIT    0.0394
     46 H46           4.586600   -1.950300   -2.484900 H        1 SUBUNIT    0.0394
     47 H47           2.543100   -4.505600   -5.721300 H        1 SUBUNIT    0.0280
     48 H48           4.079300   -4.552000   -6.606600 H        1 SUBUNIT    0.0280
     49 H49           2.292800   -6.136700   -2.135000 H        1 SUBUNIT    0.0282
     50 H50           1.711700   -5.501100   -3.686600 H        1 SUBUNIT    0.0282
     51 H51           4.702600   -6.099700   -3.112300 H        1 SUBUNIT    0.0267
     52 H52           3.588100   -7.433000   -3.472300 H        1 SUBUNIT    0.0267
     53 C53           3.901200   -6.122300   -5.148300 C.3      1 SUBUNIT   -0.0520
     54 H54           3.199300   -6.793200   -5.700500 H        1 SUBUNIT    0.0267
     55 H55           4.932200   -6.428200   -5.449700 H        1 SUBUNIT    0.0267
@<TRIPOS>BOND
     1    1    2 ar
     2    1    6 ar
     3    1    8 1
     4    2    3 ar
     5    2    7 1
     6    3    4 ar
     7    3   27 1
     8    4    5 ar
     9    4   28 1
    10    5    6 ar
    11    5   29 1
    12    6   30 1
    13    7   12 1
    14    7   17 1
    15    8   13 1
    16    9   10 ar
    17    9   14 ar
    18    9   31 1
    19   10   11 ar
    20   10   15 1
    21   11   12 ar
    22   11   32 1
    23   12   13 ar
    24   13   14 ar
    25   14   33 1
    26   15   16 1
    27   15   23 2
    28   16   34 1
    29   16   35 1
    30   16   36 1
    31   17   18 1
    32   17   37 1
    33   17   38 1
    34   18   19 1
    35   18   39 1
    36   18   40 1
    37   19   20 1
    38   19   25 1
    39   19   41 1
    40   20   21 1
    41   20   22 1
    42   21   24 1
    43   21   42 1
    44   21   43 1
    45   22   44 1
    46   22   45 1
    47   22   46 1
    48   24   47 1
    49   24   48 1
    50   24   53 1
    51   25   26 1
    52   25   49 1
    53   25   50 1
    54   26   51 1
    55   26   52 1
    56   26   53 1
    57   53   54 1
    58   53   55 1
@<SCITEGIC>ATOM_PROPERTY
Formal Charge
SciTegic.value.StringValue
1 0
2 0
3 0
4 0
5 0
6 0
7 0
8 0
9 0
10 0
11 0
12 0
13 0
14 0
15 0
16 0
17 0
18 0
19 0
20 0
21 0
22 0
23 0
24 0
25 0
26 0
27 0
28 0
29 0
30 0
31 0
32 0
33 0
34 0
35 0
36 0
37 0
38 0
39 0
40 0
41 0
42 0
43 0
44 0
45 0
46 0
47 0
48 0
49 0
50 0
51 0
52 0
53 0
54 0
55 0

@<SCITEGIC>ATOM_PROPERTY
pdb_tempFactor
SciTegic.value.DoubleValue
1 0.00
2 0.00
3 0.00
4 0.00
5 0.00
6 0.00
7 0.00
8 0.00
9 0.00
10 0.00
11 0.00
12 0.00
13 0.00
14 0.00
15 0.00
16 0.00
17 0.00
18 0.00
19 0.00
20 0.00
21 0.00
22 0.00
23 0.00
24 0.00
25 0.00
26 0.00
27 0.00
28 0.00
29 0.00
30 0.00
31 0.00
32 0.00
33 0.00
34 0.00
35 0.00
36 0.00
37 0.00
38 0.00
39 0.00
40 0.00
41 0.00
42 0.00
43 0.00
44 0.00
45 0.00
46 0.00
47 0.00
48 0.00
49 0.00
50 0.00
51 0.00
52 0.00
53 0.00
54 0.00
55 0.00

@<SCITEGIC>ATOM_PROPERTY
pdb_occupancy
SciTegic.value.DoubleValue
1 1.00
2 1.00
3 1.00
4 1.00
5 1.00
6 1.00
7 1.00
8 1.00
9 1.00
10 1.00
11 1.00
12 1.00
13 1.00
14 1.00
15 1.00
16 1.00
17 1.00
18 1.00
19 1.00
20 1.00
21 1.00
22 1.00
23 1.00
24 1.00
25 1.00
26 1.00
27 1.00
28 1.00
29 1.00
30 1.00
31 1.00
32 1.00
33 1.00
34 1.00
35 1.00
36 1.00
37 1.00
38 1.00
39 1.00
40 1.00
41 1.00
42 1.00
43 1.00
44 1.00
45 1.00
46 1.00
47 1.00
48 1.00
49 1.00
50 1.00
51 1.00
52 1.00
53 1.00
54 1.00
55 1.00

#	copyright 2023 drugdesign.org
#	Creation time:	2024-01-11T11:24:26Z

@<SCITEGIC>ROOT_PROPERTY
Ligand:MaximumNumberOfAtoms
SciTegic.value.IntegerValue
100

@<SCITEGIC>ROOT_PROPERTY
Ligand:HydrogenAtomsCountTowardsMaximum
SciTegic.value.BooleanValue
FALSE

@<TRIPOS>MOLECULE
ringsize8
   58    61     0 0 0
SMALL
USER_CHARGES


@<TRIPOS>ATOM
      1 C1           -0.625000   -1.762100    0.889900 C.ar     1 SUBUNIT   -0.0143
      2 C2           -0.348100   -2.991900    0.271600 C.ar     1 SUBUNIT   -0.0773
      3 C3           -1.250500   -3.426200   -0.708700 C.ar     1 SUBUNIT   -0.0749
      4 C4           -2.366100   -2.673000   -1.070700 C.ar     1 SUBUNIT   -0.0638
      5 C5           -2.613000   -1.451300   -0.451900 C.ar     1 SUBUNIT   -0.0613
      6 C6           -1.738000   -0.999500    0.532200 C.ar     1 SUBUNIT   -0.0509
      7 N7            0.714900   -3.759800    0.564500 N.pl3    1 SUBUNIT    0.3360
      8 S8            0.448400   -1.138400    2.156500 S.3      1 SUBUNIT   -0.0631
      9 C9            1.881600   -4.054000    4.551200 C.ar     1 SUBUNIT   -0.0750
     10 C10           1.936400   -5.164900    3.708900 C.ar     1 SUBUNIT   -0.0938
     11 C11           1.530400   -5.026600    2.380300 C.ar     1 SUBUNIT   -0.0886
     12 C12           1.081600   -3.807900    1.854800 C.ar     1 SUBUNIT   -0.0787
     13 C13           1.031600   -2.711500    2.727500 C.ar     1 SUBUNIT   -0.0144
     14 C14           1.427200   -2.833300    4.059300 C.ar     1 SUBUNIT   -0.0523
     15 S15           2.478500   -6.743400    4.266400 S.o      1 SUBUNIT    0.7990
     16 C16           4.110500   -6.270200    4.899300 C.3      1 SUBUNIT   -0.0828
     17 C17           1.483200   -4.451300   -0.484300 C.3      1 SUBUNIT   -0.0782
     18 C18           1.838100   -3.513600   -1.659700 C.3      1 SUBUNIT   -0.0512
     19 C19           2.953000   -4.001000   -2.629300 C.3      1 SUBUNIT    0.0076
     20 N20           3.258700   -2.988400   -3.662400 N.3      1 SUBUNIT   -0.3034
     21 C21           4.314500   -3.403100   -4.588400 C.3      1 SUBUNIT   -0.0019
     22 C22           3.618100   -1.697100   -3.077600 C.3      1 SUBUNIT   -0.0131
     23 O23           1.578400   -6.851500    5.435200 O.2      1 SUBUNIT   -0.6146
     24 C24           3.817100   -4.202200   -5.812000 C.3      1 SUBUNIT   -0.0404
     25 C25           2.558900   -5.370000   -3.233800 C.3      1 SUBUNIT   -0.0376
     26 C26           3.715600   -6.324900   -3.596400 C.3      1 SUBUNIT   -0.0518
     27 H27          -1.109800   -4.390500   -1.223500 H        1 SUBUNIT    0.0606
     28 H28          -3.056300   -3.044100   -1.847300 H        1 SUBUNIT    0.0622
     29 H29          -3.494100   -0.850800   -0.734800 H        1 SUBUNIT    0.0623
     30 H30          -1.941200   -0.032900    1.023800 H        1 SUBUNIT    0.0633
     31 H31           2.178900   -4.120700    5.610800 H        1 SUBUNIT    0.0608
     32 H32           1.556400   -5.921000    1.735600 H        1 SUBUNIT    0.0591
     33 H33           1.382500   -1.966100    4.740100 H        1 SUBUNIT    0.0633
     34 H34           4.621900   -7.185500    5.272600 H        1 SUBUNIT    0.0080
     35 H35           4.715700   -5.830800    4.074700 H        1 SUBUNIT    0.0080
     36 H36           4.032400   -5.543200    5.737900 H        1 SUBUNIT    0.0080
     37 H37           2.454600   -4.810400   -0.071000 H        1 SUBUNIT    0.0072
     38 H38           0.907200   -5.350900   -0.797700 H        1 SUBUNIT    0.0072
     39 H39           0.931200   -3.272700   -2.261100 H        1 SUBUNIT    0.0264
     40 H40           2.165700   -2.577500   -1.154200 H        1 SUBUNIT    0.0264
     41 H41           3.860300   -4.154800   -1.996400 H        1 SUBUNIT    0.0466
     42 H42           4.817200   -2.505200   -5.019900 H        1 SUBUNIT    0.0430
     43 H43           5.141300   -3.909300   -4.040500 H        1 SUBUNIT    0.0430
     44 H44           3.889200   -0.954400   -3.863100 H        1 SUBUNIT    0.0394
     45 H45           2.752500   -1.214400   -2.573700 H        1 SUBUNIT    0.0394
     46 H46           4.472600   -1.791800   -2.367600 H        1 SUBUNIT    0.0394
     47 H47           2.706000   -4.266000   -5.850900 H        1 SUBUNIT    0.0280
     48 H48           4.079700   -3.626800   -6.733500 H        1 SUBUNIT    0.0280
     49 H49           1.943900   -5.932200   -2.499300 H        1 SUBUNIT    0.0282
     50 H50           1.845600   -5.222500   -4.075000 H        1 SUBUNIT    0.0282
     51 H51           4.699900   -5.955700   -3.229200 H        1 SUBUNIT    0.0267
     52 H52           3.562900   -7.285600   -3.045900 H        1 SUBUNIT    0.0267
     53 C53           3.796100   -6.674400   -5.088900 C.3      1 SUBUNIT   -0.0532
     54 H54           2.774500   -6.906300   -5.473500 H        1 SUBUNIT    0.0266
     55 H55           4.390300   -7.612800   -5.211200 H        1 SUBUNIT    0.0266
     56 C56           4.452400   -5.591900   -5.955800 C.3      1 SUBUNIT   -0.0521
     57 H57           4.373900   -5.919900   -7.021200 H        1 SUBUNIT    0.0267
     58 H58           5.544200   -5.529900   -5.734100 H        1 SUBUNIT    0.0267
@<TRIPOS>BOND
     1    1    2 ar
     2    1    6 ar
     3    1    8 1
     4    2    3 ar
     5    2    7 1
     6    3    4 ar
     7    3   27 1
     8    4    5 ar
     9    4   28 1
    10    5    6 ar
    11    5   29 1
    12    6   30 1
    13    7   12 1
    14    7   17 1
    15    8   13 1
    16    9   10 ar
    17    9   14 ar
    18    9   31 1
    19   10   11 ar
    20   10   15 1
    21   11   12 ar
    22   11   32 1
    23   12   13 ar
    24   13   14 ar
    25   14   33 1
    26   15   16 1
    27   15   23 2
    28   16   34 1
    29   16   35 1
    30   16   36 1
    31   17   18 1
    32   17   37 1
    33   17   38 1
    34   18   19 1
    35   18   39 1
    36   18   40 1
    37   19   20 1
    38   19   25 1
    39   19   41 1
    40   20   21 1
    41   20   22 1
    42   21   24 1
    43   21   42 1
    44   21   43 1
    45   22   44 1
    46   22   45 1
    47   22   46 1
    48   24   47 1
    49   24   48 1
    50   24   56 1
    51   25   26 1
    52   25   49 1
    53   25   50 1
    54   26   51 1
    55   26   52 1
    56   26   53 1
    57   53   54 1
    58   53   55 1
    59   53   56 1
    60   56   57 1
    61   56   58 1
@<SCITEGIC>ATOM_PROPERTY
Formal Charge
SciTegic.value.StringValue
1 0
2 0
3 0
4 0
5 0
6 0
7 0
8 0
9 0
10 0
11 0
12 0
13 0
14 0
15 0
16 0
17 0
18 0
19 0
20 0
21 0
22 0
23 0
24 0
25 0
26 0
27 0
28 0
29 0
30 0
31 0
32 0
33 0
34 0
35 0
36 0
37 0
38 0
39 0
40 0
41 0
42 0
43 0
44 0
45 0
46 0
47 0
48 0
49 0
50 0
51 0
52 0
53 0
54 0
55 0
56 0
57 0
58 0

@<SCITEGIC>ATOM_PROPERTY
pdb_tempFactor
SciTegic.value.DoubleValue
1 0.00
2 0.00
3 0.00
4 0.00
5 0.00
6 0.00
7 0.00
8 0.00
9 0.00
10 0.00
11 0.00
12 0.00
13 0.00
14 0.00
15 0.00
16 0.00
17 0.00
18 0.00
19 0.00
20 0.00
21 0.00
22 0.00
23 0.00
24 0.00
25 0.00
26 0.00
27 0.00
28 0.00
29 0.00
30 0.00
31 0.00
32 0.00
33 0.00
34 0.00
35 0.00
36 0.00
37 0.00
38 0.00
39 0.00
40 0.00
41 0.00
42 0.00
43 0.00
44 0.00
45 0.00
46 0.00
47 0.00
48 0.00
49 0.00
50 0.00
51 0.00
52 0.00
53 0.00
54 0.00
55 0.00
56 0.00
57 0.00
58 0.00

@<SCITEGIC>ATOM_PROPERTY
pdb_occupancy
SciTegic.value.DoubleValue
1 1.00
2 1.00
3 1.00
4 1.00
5 1.00
6 1.00
7 1.00
8 1.00
9 1.00
10 1.00
11 1.00
12 1.00
13 1.00
14 1.00
15 1.00
16 1.00
17 1.00
18 1.00
19 1.00
20 1.00
21 1.00
22 1.00
23 1.00
24 1.00
25 1.00
26 1.00
27 1.00
28 1.00
29 1.00
30 1.00
31 1.00
32 1.00
33 1.00
34 1.00
35 1.00
36 1.00
37 1.00
38 1.00
39 1.00
40 1.00
41 1.00
42 1.00
43 1.00
44 1.00
45 1.00
46 1.00
47 1.00
48 1.00
49 1.00
50 1.00
51 1.00
52 1.00
53 1.00
54 1.00
55 1.00
56 1.00
57 1.00
58 1.00

#	copyright 2023 drugdesign.org
#	Creation time:	2024-01-11T11:24:26Z

@<SCITEGIC>ROOT_PROPERTY
Ligand:MaximumNumberOfAtoms
SciTegic.value.IntegerValue
100

@<SCITEGIC>ROOT_PROPERTY
Ligand:HydrogenAtomsCountTowardsMaximum
SciTegic.value.BooleanValue
FALSE

@<TRIPOS>MOLECULE
ringsize9
   61    64     0 0 0
SMALL
USER_CHARGES


@<TRIPOS>ATOM
      1 C1           -0.670500   -1.790700    0.899200 C.ar     1 SUBUNIT   -0.0143
      2 C2           -0.370800   -3.007500    0.266100 C.ar     1 SUBUNIT   -0.0773
      3 C3           -1.267700   -3.449400   -0.715900 C.ar     1 SUBUNIT   -0.0749
      4 C4           -2.400300   -2.715600   -1.065000 C.ar     1 SUBUNIT   -0.0638
      5 C5           -2.670100   -1.506400   -0.431400 C.ar     1 SUBUNIT   -0.0613
      6 C6           -1.800600   -1.047600    0.554300 C.ar     1 SUBUNIT   -0.0509
      7 N7            0.709000   -3.756600    0.546000 N.pl3    1 SUBUNIT    0.3360
      8 S8            0.395200   -1.158200    2.167900 S.3      1 SUBUNIT   -0.0631
      9 C9            1.906500   -4.066700    4.522500 C.ar     1 SUBUNIT   -0.0750
     10 C10           1.979800   -5.167400    3.668400 C.ar     1 SUBUNIT   -0.0938
     11 C11           1.562200   -5.024100    2.343900 C.ar     1 SUBUNIT   -0.0886
     12 C12           1.084100   -3.810000    1.833700 C.ar     1 SUBUNIT   -0.0787
     13 C13           1.015900   -2.724200    2.718300 C.ar     1 SUBUNIT   -0.0144
     14 C14           1.422600   -2.851200    4.046300 C.ar     1 SUBUNIT   -0.0523
     15 S15           2.560000   -6.739200    4.205700 S.o      1 SUBUNIT    0.7990
     16 C16           4.185900   -6.236600    4.831600 C.3      1 SUBUNIT   -0.0828
     17 C17           1.485900   -4.420300   -0.514300 C.3      1 SUBUNIT   -0.0782
     18 C18           1.821000   -3.459300   -1.677300 C.3      1 SUBUNIT   -0.0512
     19 C19           2.922200   -3.933300   -2.669200 C.3      1 SUBUNIT    0.0076
     20 N20           3.277800   -2.869700   -3.636400 N.3      1 SUBUNIT   -0.3034
     21 C21           4.294100   -3.293400   -4.600200 C.3      1 SUBUNIT   -0.0019
     22 C22           3.720500   -1.639500   -2.984400 C.3      1 SUBUNIT   -0.0131
     23 O23           1.671100   -6.878900    5.379600 O.2      1 SUBUNIT   -0.6146
     24 C24           3.678000   -3.772700   -5.925400 C.3      1 SUBUNIT   -0.0404
     25 C25           2.478900   -5.260600   -3.344500 C.3      1 SUBUNIT   -0.0376
     26 C26           3.581200   -6.296500   -3.665700 C.3      1 SUBUNIT   -0.0518
     27 H27          -1.108800   -4.404600   -1.242400 H        1 SUBUNIT    0.0606
     28 H28          -3.085500   -3.092200   -1.843400 H        1 SUBUNIT    0.0622
     29 H29          -3.564600   -0.921200   -0.704100 H        1 SUBUNIT    0.0623
     30 H30          -2.021700   -0.090800    1.057400 H        1 SUBUNIT    0.0633
     31 H31           2.212200   -4.137900    5.579500 H        1 SUBUNIT    0.0608
     32 H32           1.603300   -5.911300    1.689900 H        1 SUBUNIT    0.0591
     33 H33           1.363600   -1.992200    4.736500 H        1 SUBUNIT    0.0633
     34 H34           4.720200   -7.144100    5.191700 H        1 SUBUNIT    0.0080
     35 H35           4.775100   -5.775500    4.007100 H        1 SUBUNIT    0.0080
     36 H36           4.098100   -5.519900    5.678100 H        1 SUBUNIT    0.0080
     37 H37           2.464900   -4.767200   -0.108900 H        1 SUBUNIT    0.0072
     38 H38           0.928500   -5.328800   -0.834600 H        1 SUBUNIT    0.0072
     39 H39           0.907600   -3.206300   -2.263800 H        1 SUBUNIT    0.0264
     40 H40           2.149100   -2.531300   -1.158800 H        1 SUBUNIT    0.0264
     41 H41           3.818300   -4.153500   -2.040300 H        1 SUBUNIT    0.0466
     42 H42           4.983500   -2.461200   -4.877800 H        1 SUBUNIT    0.0430
     43 H43           4.976900   -4.034000   -4.132900 H        1 SUBUNIT    0.0430
     44 H44           4.026500   -0.874300   -3.735000 H        1 SUBUNIT    0.0394
     45 H45           2.893200   -1.134900   -2.439600 H        1 SUBUNIT    0.0394
     46 H46           4.576000   -1.826400   -2.294300 H        1 SUBUNIT    0.0394
     47 H47           2.668700   -4.212200   -5.790500 H        1 SUBUNIT    0.0280
     48 H48           3.488300   -2.883200   -6.574100 H        1 SUBUNIT    0.0280
     49 H49           1.786000   -5.788900   -2.655600 H        1 SUBUNIT    0.0282
     50 H50           1.796300   -5.068500   -4.199200 H        1 SUBUNIT    0.0282
     51 H51           4.559600   -6.010200   -3.218800 H        1 SUBUNIT    0.0267
     52 H52           3.324000   -7.225200   -3.098800 H        1 SUBUNIT    0.0267
     53 C53           3.750100   -6.722000   -5.141100 C.3      1 SUBUNIT   -0.0532
     54 H54           2.793300   -6.640100   -5.706600 H        1 SUBUNIT    0.0266
     55 H55           3.981000   -7.815600   -5.134800 H        1 SUBUNIT    0.0266
     56 C56           4.909500   -6.051200   -5.903600 C.3      1 SUBUNIT   -0.0532
     57 H57           5.318400   -6.777000   -6.648600 H        1 SUBUNIT    0.0266
     58 H58           5.759600   -5.861100   -5.208000 H        1 SUBUNIT    0.0266
     59 C59           4.552700   -4.775500   -6.685800 C.3      1 SUBUNIT   -0.0521
     60 H60           4.011100   -5.068900   -7.617700 H        1 SUBUNIT    0.0267
     61 H61           5.493300   -4.270100   -7.012400 H        1 SUBUNIT    0.0267
@<TRIPOS>BOND
     1    1    2 ar
     2    1    6 ar
     3    1    8 1
     4    2    3 ar
     5    2    7 1
     6    3    4 ar
     7    3   27 1
     8    4    5 ar
     9    4   28 1
    10    5    6 ar
    11    5   29 1
    12    6   30 1
    13    7   12 1
    14    7   17 1
    15    8   13 1
    16    9   10 ar
    17    9   14 ar
    18    9   31 1
    19   10   11 ar
    20   10   15 1
    21   11   12 ar
    22   11   32 1
    23   12   13 ar
    24   13   14 ar
    25   14   33 1
    26   15   16 1
    27   15   23 2
    28   16   34 1
    29   16   35 1
    30   16   36 1
    31   17   18 1
    32   17   37 1
    33   17   38 1
    34   18   19 1
    35   18   39 1
    36   18   40 1
    37   19   20 1
    38   19   25 1
    39   19   41 1
    40   20   21 1
    41   20   22 1
    42   21   24 1
    43   21   42 1
    44   21   43 1
    45   22   44 1
    46   22   45 1
    47   22   46 1
    48   24   47 1
    49   24   48 1
    50   24   59 1
    51   25   26 1
    52   25   49 1
    53   25   50 1
    54   26   51 1
    55   26   52 1
    56   26   53 1
    57   53   54 1
    58   53   55 1
    59   53   56 1
    60   56   57 1
    61   56   58 1
    62   56   59 1
    63   59   60 1
    64   59   61 1
@<SCITEGIC>ATOM_PROPERTY
Formal Charge
SciTegic.value.StringValue
1 0
2 0
3 0
4 0
5 0
6 0
7 0
8 0
9 0
10 0
11 0
12 0
13 0
14 0
15 0
16 0
17 0
18 0
19 0
20 0
21 0
22 0
23 0
24 0
25 0
26 0
27 0
28 0
29 0
30 0
31 0
32 0
33 0
34 0
35 0
36 0
37 0
38 0
39 0
40 0
41 0
42 0
43 0
44 0
45 0
46 0
47 0
48 0
49 0
50 0
51 0
52 0
53 0
54 0
55 0
56 0
57 0
58 0
59 0
60 0
61 0

@<SCITEGIC>ATOM_PROPERTY
pdb_tempFactor
SciTegic.value.DoubleValue
1 0.00
2 0.00
3 0.00
4 0.00
5 0.00
6 0.00
7 0.00
8 0.00
9 0.00
10 0.00
11 0.00
12 0.00
13 0.00
14 0.00
15 0.00
16 0.00
17 0.00
18 0.00
19 0.00
20 0.00
21 0.00
22 0.00
23 0.00
24 0.00
25 0.00
26 0.00
27 0.00
28 0.00
29 0.00
30 0.00
31 0.00
32 0.00
33 0.00
34 0.00
35 0.00
36 0.00
37 0.00
38 0.00
39 0.00
40 0.00
41 0.00
42 0.00
43 0.00
44 0.00
45 0.00
46 0.00
47 0.00
48 0.00
49 0.00
50 0.00
51 0.00
52 0.00
53 0.00
54 0.00
55 0.00
56 0.00
57 0.00
58 0.00
59 0.00
60 0.00
61 0.00

@<SCITEGIC>ATOM_PROPERTY
pdb_occupancy
SciTegic.value.DoubleValue
1 1.00
2 1.00
3 1.00
4 1.00
5 1.00
6 1.00
7 1.00
8 1.00
9 1.00
10 1.00
11 1.00
12 1.00
13 1.00
14 1.00
15 1.00
16 1.00
17 1.00
18 1.00
19 1.00
20 1.00
21 1.00
22 1.00
23 1.00
24 1.00
25 1.00
26 1.00
27 1.00
28 1.00
29 1.00
30 1.00
31 1.00
32 1.00
33 1.00
34 1.00
35 1.00
36 1.00
37 1.00
38 1.00
39 1.00
40 1.00
41 1.00
42 1.00
43 1.00
44 1.00
45 1.00
46 1.00
47 1.00
48 1.00
49 1.00
50 1.00
51 1.00
52 1.00
53 1.00
54 1.00
55 1.00
56 1.00
57 1.00
58 1.00
59 1.00
60 1.00
61 1.00

