#	copyright 2023 drugdesign.org
#	Creation time:	2024-01-11T11:24:17Z

@<TRIPOS>MOLECULE
Amino-quinazoline
   22    24     0 0 0
SMALL
USER_CHARGES


@<TRIPOS>ATOM
      1 N1            6.991741    8.726323   10.513118 N.ar     1 SUBUNIT   -0.2361
      2 C2            6.866740    8.755123    9.170218 C.ar     1 SUBUNIT    0.1175
      3 N3            7.947640    8.689223    8.370717 N.ar     1 SUBUNIT   -0.2240
      4 C4            9.198041    8.582522    8.942218 C.ar     1 SUBUNIT    0.1211
      5 N5           10.379241    8.517523    8.167117 N.pl3    1 SUBUNIT   -0.2425
      6 C6           10.621041    8.341823   10.909820 C.ar     1 SUBUNIT   -0.0164
      7 C7           10.780942    8.275123   12.314019 C.ar     1 SUBUNIT    0.1056
      8 C8            9.631041    8.420322   13.119819 C.ar     1 SUBUNIT    0.1069
      9 C9            8.370941    8.576723   12.474219 C.ar     1 SUBUNIT   -0.0025
     10 C10           8.235241    8.606623   11.062718 C.ar     1 SUBUNIT    0.0780
     11 C11           9.352742    8.514123   10.303020 C.ar     1 SUBUNIT    0.0403
     12 O12          12.017442    8.075423   12.902219 O.3      1 SUBUNIT   -0.3466
     13 O13           9.790641    8.408422   14.494512 O.3      1 SUBUNIT   -0.3465
     14 C14           8.641941    8.615723   15.333117 C.3      1 SUBUNIT    0.0423
     15 H15          11.204541    8.075623    8.564017 H        1 SUBUNIT    0.1358
     16 C16          10.390765    8.926067    6.827589 C.ar     1 SUBUNIT    0.0201
     17 C17          11.344167    8.292467    6.008389 C.ar     1 SUBUNIT   -0.0438
     18 C18          11.491866    8.618167    4.644286 C.ar     1 SUBUNIT   -0.0607
     19 C19          10.670667    9.621767    4.066286 C.ar     1 SUBUNIT   -0.0621
     20 C20           9.716966   10.276668    4.878586 C.ar     1 SUBUNIT   -0.0607
     21 C21           9.576965    9.933968    6.245090 C.ar     1 SUBUNIT   -0.0438
     22 C22          13.121842    7.852623   12.013518 C.3      1 SUBUNIT    0.0423
@<TRIPOS>BOND
     1    1    2 ar
     2    1   10 ar
     3    2    3 ar
     4    3    4 ar
     5    4   11 ar
     6    4    5 1
     7    5   16 1
     8    5   15 1
     9    6    7 ar
    10    6   11 ar
    11    7    8 ar
    12    7   12 1
    13    8    9 ar
    14    8   13 1
    15    9   10 ar
    16   10   11 ar
    17   12   22 1
    18   13   14 1
    19   16   17 ar
    20   16   21 ar
    21   17   18 ar
    22   18   19 ar
    23   19   20 ar
    24   20   21 ar
@<SCITEGIC>ATOM_PROPERTY
Formal Charge
SciTegic.value.StringValue
1 0
2 0
3 0
4 0
5 0
6 0
7 0
8 0
9 0
10 0
11 0
12 0
13 0
14 0
15 0
16 0
17 0
18 0
19 0
20 0
21 0
22 0

@<SCITEGIC>ATOM_PROPERTY
pdb_tempFactor
SciTegic.value.DoubleValue
1 0.00
2 0.00
3 0.00
4 0.00
5 0.00
6 0.00
7 0.00
8 0.00
9 0.00
10 0.00
11 0.00
12 0.00
13 0.00
14 0.00
15 0.00
16 0.00
17 0.00
18 0.00
19 0.00
20 0.00
21 0.00
22 0.00

@<SCITEGIC>ATOM_PROPERTY
pdb_occupancy
SciTegic.value.DoubleValue
1 1.00
2 1.00
3 1.00
4 1.00
5 1.00
6 1.00
7 1.00
8 1.00
9 1.00
10 1.00
11 1.00
12 1.00
13 1.00
14 1.00
15 1.00
16 1.00
17 1.00
18 1.00
19 1.00
20 1.00
21 1.00
22 1.00

#	copyright 2023 drugdesign.org
#	Creation time:	2024-01-11T11:24:17Z

@<TRIPOS>MOLECULE
Oxy analog
   21    23     0 0 0
SMALL
USER_CHARGES


@<TRIPOS>ATOM
      1 C1            9.597205    8.350649   13.091844 C.ar     1 SUBUNIT    0.1069
      2 C2           10.742828    8.259899   12.291368 C.ar     1 SUBUNIT    0.1057
      3 C3           10.631401    8.326436   10.892825 C.ar     1 SUBUNIT   -0.0153
      4 C4            9.366955    8.484374   10.290277 C.ar     1 SUBUNIT    0.0532
      5 C5            8.223634    8.574959   11.093551 C.ar     1 SUBUNIT    0.0791
      6 C6            8.336061    8.508410   12.492089 C.ar     1 SUBUNIT   -0.0025
      7 C7            9.215577    8.554652    8.893012 C.ar     1 SUBUNIT    0.1829
      8 N8            7.975137    8.698943    8.380094 N.ar     1 SUBUNIT   -0.2116
      9 C9            6.891191    8.788015    9.173198 C.ar     1 SUBUNIT    0.1186
     10 N10           7.014026    8.726269   10.514379 N.ar     1 SUBUNIT   -0.2360
     11 O11          10.334196    8.466846    8.051290 O.3      1 SUBUNIT   -0.2909
     12 C12          10.893800    8.549723    5.709537 C.ar     1 SUBUNIT   -0.0312
     13 C13          10.180201    9.062827    6.802025 C.ar     1 SUBUNIT    0.0840
     14 C14           9.339675   10.178913    6.625050 C.ar     1 SUBUNIT   -0.0312
     15 C15           9.210845   10.774284    5.358803 C.ar     1 SUBUNIT   -0.0596
     16 C16           9.922389   10.257088    4.268072 C.ar     1 SUBUNIT   -0.0621
     17 C17          10.764865    9.144697    4.443186 C.ar     1 SUBUNIT   -0.0596
     18 O18           9.707026    8.284913   14.474595 O.3      1 SUBUNIT   -0.3465
     19 O19          11.990387    8.103942   12.881154 O.3      1 SUBUNIT   -0.3466
     20 C28          13.073988    8.016191   12.070460 C.3      1 SUBUNIT    0.0423
     21 C29           8.502993    8.373207   15.302492 C.3      1 SUBUNIT    0.0423
@<TRIPOS>BOND
     1    1    2 ar
     2    1    6 ar
     3    1   18 1
     4    2    3 ar
     5    2   19 1
     6    3    4 ar
     7    4    5 ar
     8    4    7 ar
     9    5    6 ar
    10    5   10 ar
    11    7    8 ar
    12    7   11 1
    13    8    9 ar
    14    9   10 ar
    15   11   13 1
    16   12   17 ar
    17   12   13 ar
    18   13   14 ar
    19   14   15 ar
    20   15   16 ar
    21   16   17 ar
    22   18   21 1
    23   19   20 1
@<SCITEGIC>ATOM_PROPERTY
Formal Charge
SciTegic.value.StringValue
1 0
2 0
3 0
4 0
5 0
6 0
7 0
8 0
9 0
10 0
11 0
12 0
13 0
14 0
15 0
16 0
17 0
18 0
19 0
20 0
21 0

@<SCITEGIC>ATOM_PROPERTY
pdb_tempFactor
SciTegic.value.DoubleValue
1 0.00
2 0.00
3 0.00
4 0.00
5 0.00
6 0.00
7 0.00
8 0.00
9 0.00
10 0.00
11 0.00
12 0.00
13 0.00
14 0.00
15 0.00
16 0.00
17 0.00
18 0.00
19 0.00
20 0.00
21 0.00

@<SCITEGIC>ATOM_PROPERTY
pdb_occupancy
SciTegic.value.DoubleValue
1 1.00
2 1.00
3 1.00
4 1.00
5 1.00
6 1.00
7 1.00
8 1.00
9 1.00
10 1.00
11 1.00
12 1.00
13 1.00
14 1.00
15 1.00
16 1.00
17 1.00
18 1.00
19 1.00
20 1.00
21 1.00

#	copyright 2023 drugdesign.org
#	Creation time:	2024-01-11T11:24:17Z

@<TRIPOS>MOLECULE
Sulfur analog
   21    23     0 0 0
SMALL
USER_CHARGES


@<TRIPOS>ATOM
      1 C1            9.597786    8.353138   13.090579 C.ar     1 SUBUNIT    0.1069
      2 C2           10.743417    8.260499   12.289668 C.ar     1 SUBUNIT    0.1056
      3 C3           10.630995    8.324780   10.891082 C.ar     1 SUBUNIT   -0.0169
      4 C4            9.365541    8.481618   10.293099 C.ar     1 SUBUNIT    0.0357
      5 C5            8.221818    8.574722   11.094218 C.ar     1 SUBUNIT    0.0776
      6 C6            8.335342    8.510629   12.492608 C.ar     1 SUBUNIT   -0.0025
      7 C7            9.210576    8.549989    8.898046 C.ar     1 SUBUNIT    0.1121
      8 N8            7.976733    8.710580    8.377070 N.ar     1 SUBUNIT   -0.2290
      9 C9            6.893710    8.789862    9.171901 C.ar     1 SUBUNIT    0.1169
     10 N10           7.013765    8.725370   10.513581 N.ar     1 SUBUNIT   -0.2361
     11 S11          10.599401    8.437407    7.831765 S.3      1 SUBUNIT   -0.0694
     12 C12           8.656165    9.625573    6.308947 C.ar     1 SUBUNIT   -0.0482
     13 C13           9.815315    8.834316    6.312396 C.ar     1 SUBUNIT    0.0137
     14 C14          10.337452    8.353506    5.099618 C.ar     1 SUBUNIT   -0.0482
     15 C15           9.699482    8.661387    3.884968 C.ar     1 SUBUNIT   -0.0611
     16 C16           8.540429    9.451215    3.883684 C.ar     1 SUBUNIT   -0.0622
     17 C17           8.017931    9.934206    5.094636 C.ar     1 SUBUNIT   -0.0611
     18 O18           9.709024    8.289357   14.473271 O.3      1 SUBUNIT   -0.3465
     19 O19          11.991096    8.105089   12.878959 O.3      1 SUBUNIT   -0.3466
     20 C28          13.074202    8.015365   12.067969 C.3      1 SUBUNIT    0.0423
     21 C29           8.601575    8.396731   15.129355 C.3      1 SUBUNIT    0.0423
@<TRIPOS>BOND
     1    1    2 ar
     2    1    6 ar
     3    1   18 1
     4    2    3 ar
     5    2   19 1
     6    3    4 ar
     7    4    5 ar
     8    4    7 ar
     9    5    6 ar
    10    5   10 ar
    11    7    8 ar
    12    7   11 1
    13    8    9 ar
    14    9   10 ar
    15   11   13 1
    16   12   17 ar
    17   12   13 ar
    18   13   14 ar
    19   14   15 ar
    20   15   16 ar
    21   16   17 ar
    22   18   21 1
    23   19   20 1
@<SCITEGIC>ATOM_PROPERTY
Formal Charge
SciTegic.value.StringValue
1 0
2 0
3 0
4 0
5 0
6 0
7 0
8 0
9 0
10 0
11 0
12 0
13 0
14 0
15 0
16 0
17 0
18 0
19 0
20 0
21 0

@<SCITEGIC>ATOM_PROPERTY
pdb_tempFactor
SciTegic.value.DoubleValue
1 0.00
2 0.00
3 0.00
4 0.00
5 0.00
6 0.00
7 0.00
8 0.00
9 0.00
10 0.00
11 0.00
12 0.00
13 0.00
14 0.00
15 0.00
16 0.00
17 0.00
18 0.00
19 0.00
20 0.00
21 0.00

@<SCITEGIC>ATOM_PROPERTY
pdb_occupancy
SciTegic.value.DoubleValue
1 1.00
2 1.00
3 1.00
4 1.00
5 1.00
6 1.00
7 1.00
8 1.00
9 1.00
10 1.00
11 1.00
12 1.00
13 1.00
14 1.00
15 1.00
16 1.00
17 1.00
18 1.00
19 1.00
20 1.00
21 1.00

#	copyright 2023 drugdesign.org
#	Creation time:	2024-01-11T11:24:17Z

@<TRIPOS>MOLECULE
N-Methyl analog
   25    27     0 0 0
SMALL
USER_CHARGES


@<TRIPOS>ATOM
      1 O1            9.677831    8.338324   14.559821 O.3      1 SUBUNIT    0.0623
      2 C2            9.559849    8.384114   13.065171 C.ar     1 SUBUNIT   -0.0601
      3 C3           10.699746    8.268450   12.270551 C.ar     1 SUBUNIT   -0.0614
      4 C4           10.591737    8.309222   10.880530 C.ar     1 SUBUNIT   -0.0496
      5 C5            9.339081    8.468180   10.277963 C.ar     1 SUBUNIT    0.0377
      6 C6            8.201989    8.585143   11.076619 C.ar     1 SUBUNIT    0.0753
      7 C7            8.310075    8.544444   12.467435 C.ar     1 SUBUNIT   -0.0356
      8 C8            9.187177    8.515814    8.886203 C.ar     1 SUBUNIT    0.1235
      9 N9            7.958651    8.682652    8.376708 N.ar     1 SUBUNIT   -0.2238
     10 C10           6.885934    8.798242    9.171647 C.ar     1 SUBUNIT    0.1175
     11 N11           7.003319    8.741712   10.503736 N.ar     1 SUBUNIT   -0.2362
     12 N12          10.313001    8.391934    7.987465 N.pl3    1 SUBUNIT   -0.2316
     13 C13          10.675356    9.533537    7.166686 C.3      1 SUBUNIT   -0.0019
     14 C14          11.058676    7.146051    7.890538 C.ar     1 SUBUNIT    0.0227
     15 C15          12.383025    7.141681    7.436518 C.ar     1 SUBUNIT   -0.0436
     16 C16          13.088378    5.941419    7.346880 C.ar     1 SUBUNIT   -0.0607
     17 C17          12.481097    4.740757    7.710591 C.ar     1 SUBUNIT   -0.0621
     18 C18          11.163665    4.737887    8.164245 C.ar     1 SUBUNIT   -0.0607
     19 C19          10.455507    5.936588    8.252650 C.ar     1 SUBUNIT   -0.0436
     20 H20          11.435163   10.153805    7.682698 H        1 SUBUNIT    0.0403
     21 H21          11.058627    9.207278    6.195872 H        1 SUBUNIT    0.0403
     22 H22           9.770776   10.164760    6.982301 H        1 SUBUNIT    0.0403
     23 O23          12.045161    8.099725   12.911946 O.3      1 SUBUNIT    0.0623
     24 C49           8.464026    8.423536   15.408875 C.3      1 SUBUNIT    0.0000
     25 C67          13.289264    7.918714   12.093747 C.3      1 SUBUNIT    0.0000
@<TRIPOS>BOND
     1    1    2 1
     2    2    3 ar
     3    2    7 ar
     4    3    4 ar
     5    3   23 1
     6    4    5 ar
     7    5    6 ar
     8    5    8 ar
     9    6    7 ar
    10    6   11 ar
    11    8    9 ar
    12    8   12 1
    13    9   10 ar
    14   10   11 ar
    15   12   13 1
    16   12   14 1
    17   13   20 1
    18   13   21 1
    19   13   22 1
    20   14   15 ar
    21   14   19 ar
    22   15   16 ar
    23   16   17 ar
    24   17   18 ar
    25   18   19 ar
    26    1   24 1
    27   23   25 1
@<SCITEGIC>ATOM_PROPERTY
Formal Charge
SciTegic.value.StringValue
1 0
2 0
3 0
4 0
5 0
6 0
7 0
8 0
9 0
10 0
11 0
12 0
13 0
14 0
15 0
16 0
17 0
18 0
19 0
20 0
21 0
22 0
23 0
24 0
25 0

@<SCITEGIC>ATOM_PROPERTY
pdb_tempFactor
SciTegic.value.DoubleValue
1 0.00
2 0.00
3 0.00
4 0.00
5 0.00
6 0.00
7 0.00
8 0.00
9 0.00
10 0.00
11 0.00
12 0.00
13 0.00
14 0.00
15 0.00
16 0.00
17 0.00
18 0.00
19 0.00
20 0.00
21 0.00
22 0.00
23 0.00
24 0.00
25 0.00

@<SCITEGIC>ATOM_PROPERTY
pdb_occupancy
SciTegic.value.DoubleValue
1 1.00
2 1.00
3 1.00
4 1.00
5 1.00
6 1.00
7 1.00
8 1.00
9 1.00
10 1.00
11 1.00
12 1.00
13 1.00
14 1.00
15 1.00
16 1.00
17 1.00
18 1.00
19 1.00
20 1.00
21 1.00
22 1.00
23 1.00
24 1.00
25 1.00

