#	copyright 2023 drugdesign.org
#	Creation time:	2024-01-11T11:24:48Z

@<TRIPOS>MOLECULE
Molecule
   40    43     0 0 0
SMALL
USER_CHARGES


@<TRIPOS>ATOM
      1 C1           -2.234768    2.071837   -0.320547 C.ar     1 SUBUNIT    0.1406
      2 C2           -1.024634    1.392462   -0.351084 C.ar     1 SUBUNIT    0.0228
      3 C3           -1.041582    0.009792   -0.315937 C.ar     1 SUBUNIT    0.0087
      4 C4           -2.265831   -0.636594   -0.250369 C.ar     1 SUBUNIT    0.0754
      5 N5           -3.376194    0.096772   -0.228289 N.ar     1 SUBUNIT   -0.1530
      6 N6           -3.361733    1.366458   -0.263096 N.ar     1 SUBUNIT   -0.1376
      7 C13           0.149106   -0.707436   -0.340419 C.ar     1 SUBUNIT   -0.0523
      8 C14           1.361156   -0.029263   -0.403042 C.ar     1 SUBUNIT   -0.0615
      9 C15           1.379196    1.360935   -0.438587 C.ar     1 SUBUNIT   -0.0615
     10 C16           0.185441    2.073220   -0.411762 C.ar     1 SUBUNIT   -0.0510
     11 N22          -2.217227    3.499928   -0.342308 N.pl3    1 SUBUNIT   -0.2410
     12 C24          -2.278259   -2.165466   -0.182655 C.3      1 SUBUNIT    0.0175
     13 C26          -3.369602    4.317779   -0.492780 C.ar     1 SUBUNIT    0.0203
     14 H28          -1.344607    3.957870   -0.237274 H        1 SUBUNIT    0.1358
     15 C30          -3.601178   -2.857348   -0.465331 C.ar     1 SUBUNIT   -0.0389
     16 H32          -1.613222   -2.502327   -0.849177 H        1 SUBUNIT    0.0383
     17 H34          -1.990774   -2.428954    0.738175 H        1 SUBUNIT    0.0383
     18 C36          -3.685415    5.349547    0.386253 C.ar     1 SUBUNIT   -0.0424
     19 C37          -4.830925    6.113299    0.188824 C.ar     1 SUBUNIT   -0.0419
     20 C38          -5.666117    5.849504   -0.890883 C.ar     1 SUBUNIT    0.0407
     21 C39          -5.354786    4.821688   -1.771953 C.ar     1 SUBUNIT   -0.0419
     22 C40          -4.210526    4.059706   -1.570036 C.ar     1 SUBUNIT   -0.0424
     23 H47          -3.086136    5.542603    1.163166 H        1 SUBUNIT    0.0640
     24 H49          -5.053974    6.852761    0.823999 H        1 SUBUNIT    0.0639
     25 Cl51         -7.090243    6.795760   -1.139542 Cl       1 SUBUNIT   -0.0843
     26 H53          -5.953062    4.630513   -2.550103 H        1 SUBUNIT    0.0639
     27 H55          -3.989735    3.319272   -2.204862 H        1 SUBUNIT    0.0640
     28 C57          -4.613738   -2.963965    0.479284 C.ar     1 SUBUNIT   -0.0402
     29 C58          -5.796634   -3.609560    0.139017 C.ar     1 SUBUNIT    0.0271
     30 N59          -5.964283   -4.123336   -1.075630 N.ar     1 SUBUNIT   -0.2646
     31 C60          -5.016605   -4.036512   -2.002983 C.ar     1 SUBUNIT    0.0271
     32 C61          -3.813027   -3.400041   -1.725423 C.ar     1 SUBUNIT   -0.0402
     33 H68          -4.492973   -2.580202    1.394784 H        1 SUBUNIT    0.0642
     34 H70          -6.529332   -3.688424    0.814985 H        1 SUBUNIT    0.0839
     35 H72          -5.170877   -4.432525   -2.908176 H        1 SUBUNIT    0.0839
     36 H74          -3.104692   -3.333400   -2.428146 H        1 SUBUNIT    0.0642
     37 H76           0.133838   -1.706947   -0.313101 H        1 SUBUNIT    0.0630
     38 H78           2.220026   -0.541086   -0.422528 H        1 SUBUNIT    0.0623
     39 H80           2.251156    1.848449   -0.483460 H        1 SUBUNIT    0.0623
     40 H82           0.197537    3.072851   -0.436067 H        1 SUBUNIT    0.0630
@<TRIPOS>BOND
     1    1    2 ar
     2    2    3 ar
     3    3    4 ar
     4    4    5 ar
     5    5    6 ar
     6    6    1 ar
     7    7    8 ar
     8    8    9 ar
     9    9   10 ar
    10    2   10 ar
    11    3    7 ar
    12    1   11 1
    13    4   12 1
    14   11   13 1
    15   11   14 1
    16   12   15 1
    17   12   16 1
    18   12   17 1
    19   18   19 ar
    20   19   20 ar
    21   20   21 ar
    22   21   22 ar
    23   13   18 ar
    24   13   22 ar
    25   18   23 1
    26   19   24 1
    27   20   25 1
    28   21   26 1
    29   22   27 1
    30   28   29 ar
    31   29   30 ar
    32   30   31 ar
    33   31   32 ar
    34   15   28 ar
    35   15   32 ar
    36   28   33 1
    37   29   34 1
    38   31   35 1
    39   32   36 1
    40    7   37 1
    41    8   38 1
    42    9   39 1
    43   10   40 1
@<SCITEGIC>ATOM_PROPERTY
Formal Charge
SciTegic.value.StringValue
1 0
2 0
3 0
4 0
5 0
6 0
7 0
8 0
9 0
10 0
11 0
12 0
13 0
14 0
15 0
16 0
17 0
18 0
19 0
20 0
21 0
22 0
23 0
24 0
25 0
26 0
27 0
28 0
29 0
30 0
31 0
32 0
33 0
34 0
35 0
36 0
37 0
38 0
39 0
40 0

@<SCITEGIC>ATOM_PROPERTY
pdb_tempFactor
SciTegic.value.DoubleValue
1 0.00
2 0.00
3 0.00
4 0.00
5 0.00
6 0.00
7 0.00
8 0.00
9 0.00
10 0.00
11 0.00
12 0.00
13 0.00
14 0.00
15 0.00
16 0.00
17 0.00
18 0.00
19 0.00
20 0.00
21 0.00
22 0.00
23 0.00
24 0.00
25 0.00
26 0.00
27 0.00
28 0.00
29 0.00
30 0.00
31 0.00
32 0.00
33 0.00
34 0.00
35 0.00
36 0.00
37 0.00
38 0.00
39 0.00
40 0.00

@<SCITEGIC>ATOM_PROPERTY
pdb_occupancy
SciTegic.value.DoubleValue
1 1.00
2 1.00
3 1.00
4 1.00
5 1.00
6 1.00
7 1.00
8 1.00
9 1.00
10 1.00
11 1.00
12 1.00
13 1.00
14 1.00
15 1.00
16 1.00
17 1.00
18 1.00
19 1.00
20 1.00
21 1.00
22 1.00
23 1.00
24 1.00
25 1.00
26 1.00
27 1.00
28 1.00
29 1.00
30 1.00
31 1.00
32 1.00
33 1.00
34 1.00
35 1.00
36 1.00
37 1.00
38 1.00
39 1.00
40 1.00

#	copyright 2023 drugdesign.org
#	Creation time:	2024-01-11T11:24:48Z

@<TRIPOS>MOLECULE
Molecule
   40    42     0 0 0
SMALL
USER_CHARGES


@<TRIPOS>ATOM
      1 C1           -2.056426    2.263713    0.040021 C.2      1 SUBUNIT    0.2488
      2 C2           -0.782166    1.516405    0.096348 C.ar     1 SUBUNIT    0.0553
      3 C3           -0.746629    0.120163    0.073219 C.ar     1 SUBUNIT    0.0275
      4 N4           -1.925196   -0.651708    0.020529 N.pl3    1 SUBUNIT   -0.2836
      5 O5           -3.115828    1.650229   -0.131584 O.2      1 SUBUNIT   -0.2715
      6 C10           0.479137   -0.537070    0.099838 C.ar     1 SUBUNIT   -0.0434
      7 C11           1.665960    0.183105    0.154229 C.ar     1 SUBUNIT   -0.0606
      8 C12           1.630450    1.571109    0.184662 C.ar     1 SUBUNIT   -0.0614
      9 C13           0.408897    2.232706    0.155405 C.ar     1 SUBUNIT   -0.0481
     10 N22          -2.043106    3.680085    0.191152 N.am     1 SUBUNIT   -0.2813
     11 C24          -1.837990   -2.066915   -0.185219 C.3      1 SUBUNIT    0.0252
     12 C26          -3.189331    4.487779   -0.038012 C.ar     1 SUBUNIT    0.0328
     13 H25          -1.200939    4.122411    0.482017 H        1 SUBUNIT    0.1560
     14 C30          -3.205439   -2.666620   -0.275983 C.ar     1 SUBUNIT   -0.0307
     15 H29          -1.342764   -2.246152   -1.035292 H        1 SUBUNIT    0.0482
     16 H31          -1.346880   -2.481382    0.580958 H        1 SUBUNIT    0.0482
     17 C33          -3.495878    5.492843    0.872216 C.ar     1 SUBUNIT   -0.0392
     18 C34          -4.609608    6.301000    0.674393 C.ar     1 SUBUNIT   -0.0417
     19 C35          -5.418968    6.115707   -0.437915 C.ar     1 SUBUNIT    0.0407
     20 C36          -5.113564    5.118464   -1.354417 C.ar     1 SUBUNIT   -0.0417
     21 C37          -4.003768    4.307252   -1.152159 C.ar     1 SUBUNIT   -0.0392
     22 H44          -2.913055    5.635021    1.672281 H        1 SUBUNIT    0.0643
     23 H46          -4.828421    7.018384    1.335815 H        1 SUBUNIT    0.0639
     24 Cl51         -6.799640    7.123238   -0.678350 Cl       1 SUBUNIT   -0.0843
     25 H50          -5.691706    4.984187   -2.159228 H        1 SUBUNIT    0.0639
     26 H52          -3.788433    3.587816   -1.812495 H        1 SUBUNIT    0.0643
     27 C54          -4.190576   -2.371185    0.656834 C.ar     1 SUBUNIT   -0.0393
     28 C55          -5.443933   -2.957263    0.516950 C.ar     1 SUBUNIT    0.0271
     29 N59          -5.701262   -3.779101   -0.496860 N.ar     1 SUBUNIT   -0.2647
     30 C57          -4.777400   -4.075600   -1.405393 C.ar     1 SUBUNIT    0.0271
     31 C58          -3.502129   -3.532262   -1.318223 C.ar     1 SUBUNIT   -0.0393
     32 H65          -4.002138   -1.747973    1.415846 H        1 SUBUNIT    0.0642
     33 H67          -6.159945   -2.758596    1.186172 H        1 SUBUNIT    0.0840
     34 H69          -5.002341   -4.694826   -2.157697 H        1 SUBUNIT    0.0840
     35 H71          -2.806365   -3.762397   -1.998627 H        1 SUBUNIT    0.0642
     36 H73           0.506258   -1.536498    0.079649 H        1 SUBUNIT    0.0640
     37 H75           2.543242   -0.296564    0.171416 H        1 SUBUNIT    0.0623
     38 H77           2.482199    2.093302    0.227540 H        1 SUBUNIT    0.0623
     39 H79           0.385773    3.232206    0.176984 H        1 SUBUNIT    0.0631
     40 H81          -2.816139   -0.212645    0.076560 H        1 SUBUNIT    0.1285
@<TRIPOS>BOND
     1    1    2 1
     2    2    3 ar
     3    3    4 1
     4    5    1 2
     5    6    7 ar
     6    7    8 ar
     7    8    9 ar
     8    2    9 ar
     9    3    6 ar
    10    1   10 1
    11    4   11 1
    12   10   12 1
    13   10   13 1
    14   11   14 1
    15   11   15 1
    16   11   16 1
    17   17   18 ar
    18   18   19 ar
    19   19   20 ar
    20   20   21 ar
    21   12   17 ar
    22   12   21 ar
    23   17   22 1
    24   18   23 1
    25   19   24 1
    26   20   25 1
    27   21   26 1
    28   27   28 ar
    29   28   29 ar
    30   29   30 ar
    31   30   31 ar
    32   14   27 ar
    33   14   31 ar
    34   27   32 1
    35   28   33 1
    36   30   34 1
    37   31   35 1
    38    6   36 1
    39    7   37 1
    40    8   38 1
    41    9   39 1
    42    4   40 1
@<SCITEGIC>ATOM_PROPERTY
Formal Charge
SciTegic.value.StringValue
1 0
2 0
3 0
4 0
5 0
6 0
7 0
8 0
9 0
10 0
11 0
12 0
13 0
14 0
15 0
16 0
17 0
18 0
19 0
20 0
21 0
22 0
23 0
24 0
25 0
26 0
27 0
28 0
29 0
30 0
31 0
32 0
33 0
34 0
35 0
36 0
37 0
38 0
39 0
40 0

@<SCITEGIC>ATOM_PROPERTY
pdb_tempFactor
SciTegic.value.DoubleValue
1 0.00
2 0.00
3 0.00
4 0.00
5 0.00
6 0.00
7 0.00
8 0.00
9 0.00
10 0.00
11 0.00
12 0.00
13 0.00
14 0.00
15 0.00
16 0.00
17 0.00
18 0.00
19 0.00
20 0.00
21 0.00
22 0.00
23 0.00
24 0.00
25 0.00
26 0.00
27 0.00
28 0.00
29 0.00
30 0.00
31 0.00
32 0.00
33 0.00
34 0.00
35 0.00
36 0.00
37 0.00
38 0.00
39 0.00
40 0.00

@<SCITEGIC>ATOM_PROPERTY
pdb_occupancy
SciTegic.value.DoubleValue
1 1.00
2 1.00
3 1.00
4 1.00
5 1.00
6 1.00
7 1.00
8 1.00
9 1.00
10 1.00
11 1.00
12 1.00
13 1.00
14 1.00
15 1.00
16 1.00
17 1.00
18 1.00
19 1.00
20 1.00
21 1.00
22 1.00
23 1.00
24 1.00
25 1.00
26 1.00
27 1.00
28 1.00
29 1.00
30 1.00
31 1.00
32 1.00
33 1.00
34 1.00
35 1.00
36 1.00
37 1.00
38 1.00
39 1.00
40 1.00

