#	copyright 2023 drugdesign.org
#	Creation time:	2024-01-11T11:24:33Z

@<TRIPOS>MOLECULE
estazolam_2b_sup.sd
   32    34     0 0 0
SMALL
USER_CHARGES


@<TRIPOS>ATOM
      1 C1           -0.951200    1.746000   -0.030400 C.2      1 SUBUNIT   -0.0057
      2 C2           -0.857300    0.346200   -0.009900 C.2      1 SUBUNIT   -0.1227
      3 C3           -1.840400   -0.368300   -0.706100 C.2      1 SUBUNIT   -0.0605
      4 C4           -2.857200    0.266300   -1.418400 C.2      1 SUBUNIT    0.0391
      5 C5           -2.918800    1.657000   -1.441300 C.2      1 SUBUNIT   -0.0429
      6 C6           -1.966000    2.391800   -0.740300 C.2      1 SUBUNIT   -0.0519
      7 Cl7          -4.027200   -0.681000   -2.261500 Cl       1 SUBUNIT   -0.0844
      8 O8            0.170100   -0.314000    0.702300 O.3      1 SUBUNIT    1.3553
      9 C9            0.704100   -1.569600    0.360300 C.2      1 SUBUNIT   -0.1157
     10 C10           0.866300   -1.980700   -0.967500 C.2      1 SUBUNIT   -0.0785
     11 C11           1.411000   -3.222400   -1.288800 C.2      1 SUBUNIT   -0.0637
     12 C12           1.819000   -4.083400   -0.273600 C.2      1 SUBUNIT   -0.0609
     13 C13           1.684000   -3.686500    1.054800 C.2      1 SUBUNIT   -0.0451
     14 C14           1.136800   -2.440200    1.364500 C.2      1 SUBUNIT    0.0230
     15 C15           0.012800    2.571800    0.726800 C.2      1 SUBUNIT    0.1163
     16 N16           0.916400    2.148800    1.610600 N.pl3    1 SUBUNIT   -0.2322
     17 C17           1.560300    3.190500    2.094600 C.2      1 SUBUNIT    0.0792
     18 C18           1.030000    4.264300    1.496100 C.2      1 SUBUNIT    0.0580
     19 N19           0.064200    3.856600    0.661400 N.2      1 SUBUNIT   -0.2412
     20 H20          -1.814000   -1.470100   -0.686300 H        1 SUBUNIT    0.0622
     21 H21          -3.715700    2.179900   -1.997200 H        1 SUBUNIT    0.0638
     22 H22          -2.037600    3.492200   -0.754800 H        1 SUBUNIT    0.0630
     23 H23           0.565500   -1.309400   -1.788700 H        1 SUBUNIT    0.0607
     24 H24           1.523200   -3.521700   -2.344700 H        1 SUBUNIT    0.0622
     25 H25           2.252500   -5.067400   -0.520000 H        1 SUBUNIT    0.0623
     26 H26           2.018900   -4.370800    1.853100 H        1 SUBUNIT    0.0638
     27 Cl27          1.012500   -2.001500    3.031600 Cl       1 SUBUNIT   -0.0860
     28 H28           1.308500    5.332900    1.641600 H        1 SUBUNIT    0.0868
     29 H31           1.078500    1.178900    1.881000 H        1 SUBUNIT    0.1368
     30 N32           2.518000    3.044600    2.989400 N.pl3    1 SUBUNIT   -0.2917
     31 H33           2.743900    2.102800    3.310200 H        1 SUBUNIT    0.1253
     32 H34           2.999400    3.867500    3.351900 H        1 SUBUNIT    0.1253
@<TRIPOS>BOND
     1    1    2 2
     2    1    6 1
     3    1   15 1
     4    2    3 1
     5    2    8 1
     6    3    4 2
     7    3   20 1
     8    4    5 1
     9    4    7 1
    10    5    6 2
    11    5   21 1
    12    6   22 1
    13    8    9 1
    14    9   10 2
    15    9   14 1
    16   10   11 1
    17   10   23 1
    18   11   12 2
    19   11   24 1
    20   12   13 1
    21   12   25 1
    22   13   14 2
    23   13   26 1
    24   14   27 1
    25   15   16 1
    26   15   19 2
    27   16   17 1
    28   16   29 1
    29   17   18 2
    30   17   30 1
    31   18   19 1
    32   18   28 1
    33   30   31 1
    34   30   32 1
@<SCITEGIC>ATOM_PROPERTY
Formal Charge
SciTegic.value.StringValue
1 0
2 0
3 0
4 0
5 0
6 0
7 0
8 0
9 0
10 0
11 0
12 0
13 0
14 0
15 0
16 0
17 0
18 0
19 0
20 0
21 0
22 0
23 0
24 0
25 0
26 0
27 0
28 0
29 0
30 0
31 0
32 0

@<SCITEGIC>ATOM_PROPERTY
pdb_tempFactor
SciTegic.value.DoubleValue
1 0.00
2 0.00
3 0.00
4 0.00
5 0.00
6 0.00
7 0.00
8 0.00
9 0.00
10 0.00
11 0.00
12 0.00
13 0.00
14 0.00
15 0.00
16 0.00
17 0.00
18 0.00
19 0.00
20 0.00
21 0.00
22 0.00
23 0.00
24 0.00
25 0.00
26 0.00
27 0.00
28 0.00
29 0.00
30 0.00
31 0.00
32 0.00

@<SCITEGIC>ATOM_PROPERTY
pdb_occupancy
SciTegic.value.DoubleValue
1 1.00
2 1.00
3 1.00
4 1.00
5 1.00
6 1.00
7 1.00
8 1.00
9 1.00
10 1.00
11 1.00
12 1.00
13 1.00
14 1.00
15 1.00
16 1.00
17 1.00
18 1.00
19 1.00
20 1.00
21 1.00
22 1.00
23 1.00
24 1.00
25 1.00
26 1.00
27 1.00
28 1.00
29 1.00
30 1.00
31 1.00
32 1.00

#	copyright 2023 drugdesign.org
#	Creation time:	2024-01-11T11:24:33Z

@<TRIPOS>MOLECULE
estazolam_2b_sup.sd
   33    36     0 0 0
SMALL
USER_CHARGES


@<TRIPOS>ATOM
      1 C1           -0.759500    1.719600   -0.046100 C.2      1 SUBUNIT    0.0368
      2 C2           -0.784100    0.333400    0.163600 C.2      1 SUBUNIT    0.0207
      3 C3           -1.820800   -0.431800   -0.381400 C.2      1 SUBUNIT   -0.0325
      4 C4           -2.809600    0.154100   -1.169800 C.2      1 SUBUNIT    0.0414
      5 C5           -2.769300    1.525300   -1.408200 C.2      1 SUBUNIT   -0.0419
      6 C6           -1.754700    2.295600   -0.843600 C.2      1 SUBUNIT   -0.0411
      7 Cl7          -4.065300   -0.821700   -1.838200 Cl       1 SUBUNIT   -0.0843
      8 C8            0.248700   -0.384000    0.956600 C.2      1 SUBUNIT    0.0741
      9 N9            0.671900   -0.024500    2.114900 N.2      1 SUBUNIT   -0.2765
     10 C10           0.773800   -1.652100    0.391800 C.2      1 SUBUNIT    0.0004
     11 C11           0.806000   -1.867900   -0.988700 C.2      1 SUBUNIT   -0.0528
     12 C12           1.282200   -3.073700   -1.502400 C.2      1 SUBUNIT   -0.0616
     13 C13           1.725100   -4.075400   -0.640700 C.2      1 SUBUNIT   -0.0622
     14 C14           1.690800   -3.867600    0.736900 C.2      1 SUBUNIT   -0.0616
     15 C15           1.215700   -2.661500    1.251200 C.2      1 SUBUNIT   -0.0528
     16 N16           0.155100    2.512300    0.519600 N.pl3    1 SUBUNIT   -0.2049
     17 C17           0.604500    2.358500    1.769600 C.2      1 SUBUNIT    0.1148
     18 N18           1.396500    3.316900    2.098100 N.2      1 SUBUNIT   -0.2455
     19 C19           1.468700    4.122700    1.032000 C.2      1 SUBUNIT    0.0400
     20 C20           0.697000    3.638900    0.050100 C.2      1 SUBUNIT    0.0097
     21 H21          -1.862600   -1.517900   -0.192700 H        1 SUBUNIT    0.0646
     22 H22          -3.542900    2.011100   -2.027000 H        1 SUBUNIT    0.0639
     23 H23          -1.775300    3.382900   -1.027000 H        1 SUBUNIT    0.0640
     24 H24           0.474500   -1.090400   -1.696700 H        1 SUBUNIT    0.0630
     25 H25           1.310100   -3.235500   -2.593300 H        1 SUBUNIT    0.0623
     26 H26           2.101100   -5.029400   -1.047500 H        1 SUBUNIT    0.0622
     27 H27           2.037900   -4.660300    1.421100 H        1 SUBUNIT    0.0623
     28 H28           1.190800   -2.526900    2.345500 H        1 SUBUNIT    0.0630
     29 H29           2.087100    5.048900    1.009000 H        1 SUBUNIT    0.0851
     30 H30           0.540500    4.071700   -0.965000 H        1 SUBUNIT    0.0777
     31 C31           0.228200    1.218100    2.691400 C.3      1 SUBUNIT    0.0932
     32 H32          -0.870900    1.205700    2.878400 H        1 SUBUNIT    0.0594
     33 H33           0.743700    1.344000    3.670700 H        1 SUBUNIT    0.0594
@<TRIPOS>BOND
     1    1    2 2
     2    1    6 1
     3    1   16 1
     4    2    3 1
     5    2    8 1
     6    3    4 2
     7    3   21 1
     8    4    5 1
     9    4    7 1
    10    5    6 2
    11    5   22 1
    12    6   23 1
    13    8    9 2
    14    8   10 1
    15    9   31 1
    16   10   11 2
    17   10   15 1
    18   11   12 1
    19   11   24 1
    20   12   13 2
    21   12   25 1
    22   13   14 1
    23   13   26 1
    24   14   15 2
    25   14   27 1
    26   15   28 1
    27   16   17 1
    28   16   20 1
    29   17   18 2
    30   17   31 1
    31   18   19 1
    32   19   20 2
    33   19   29 1
    34   20   30 1
    35   31   32 1
    36   31   33 1
@<SCITEGIC>ATOM_PROPERTY
Formal Charge
SciTegic.value.StringValue
1 0
2 0
3 0
4 0
5 0
6 0
7 0
8 0
9 0
10 0
11 0
12 0
13 0
14 0
15 0
16 0
17 0
18 0
19 0
20 0
21 0
22 0
23 0
24 0
25 0
26 0
27 0
28 0
29 0
30 0
31 0
32 0
33 0

@<SCITEGIC>ATOM_PROPERTY
pdb_tempFactor
SciTegic.value.DoubleValue
1 0.00
2 0.00
3 0.00
4 0.00
5 0.00
6 0.00
7 0.00
8 0.00
9 0.00
10 0.00
11 0.00
12 0.00
13 0.00
14 0.00
15 0.00
16 0.00
17 0.00
18 0.00
19 0.00
20 0.00
21 0.00
22 0.00
23 0.00
24 0.00
25 0.00
26 0.00
27 0.00
28 0.00
29 0.00
30 0.00
31 0.00
32 0.00
33 0.00

@<SCITEGIC>ATOM_PROPERTY
pdb_occupancy
SciTegic.value.DoubleValue
1 1.00
2 1.00
3 1.00
4 1.00
5 1.00
6 1.00
7 1.00
8 1.00
9 1.00
10 1.00
11 1.00
12 1.00
13 1.00
14 1.00
15 1.00
16 1.00
17 1.00
18 1.00
19 1.00
20 1.00
21 1.00
22 1.00
23 1.00
24 1.00
25 1.00
26 1.00
27 1.00
28 1.00
29 1.00
30 1.00
31 1.00
32 1.00
33 1.00

