#	copyright 2023 drugdesign.org
#	Creation time:	2024-01-11T11:24:54Z

@<SCITEGIC>ROOT_PROPERTY
Ligand:MaximumNumberOfAtoms
SciTegic.value.IntegerValue
100

@<SCITEGIC>ROOT_PROPERTY
Ligand:HydrogenAtomsCountTowardsMaximum
SciTegic.value.BooleanValue
FALSE

@<TRIPOS>MOLECULE
Molecule
   32    32     0 0 0
SMALL
USER_CHARGES


@<TRIPOS>ATOM
      1 C1           -1.020660    3.676248    0.759961 C.2      1 SUBUNIT    0.1495
      2 C2            0.179079    2.942660    1.246083 C.3      1 SUBUNIT    0.0234
      3 C3            0.136025    1.504478    0.746555 C.3      1 SUBUNIT   -0.0175
      4 C4           -1.189839    0.869636    1.187921 C.3      1 SUBUNIT   -0.0009
      5 N5           -2.289011    1.591341    0.505400 N.3      1 SUBUNIT   -0.3097
      6 C6           -2.368432    3.024033    0.876546 C.3      1 SUBUNIT    0.0549
      7 O13          -0.919628    4.839493    0.364025 O.2      1 SUBUNIT   -0.2979
      8 H15          -1.206300   -0.096476    0.930323 H        1 SUBUNIT    0.0431
      9 H17          -1.292908    0.952619    2.179128 H        1 SUBUNIT    0.0431
     10 H19          -3.011040    3.486450    0.265625 H        1 SUBUNIT    0.0510
     11 H21          -2.690295    3.101521    1.820156 H        1 SUBUNIT    0.0510
     12 C23           1.329372    0.734429    1.333083 C.3      1 SUBUNIT   -0.0328
     13 H25           0.194400    1.486047   -0.350572 H        1 SUBUNIT    0.0324
     14 C27           2.648585    1.404467    0.878607 C.3      1 SUBUNIT    0.0093
     15 H29           1.275898    0.746963    2.331574 H        1 SUBUNIT    0.0286
     16 H31           1.307233   -0.211498    1.009461 H        1 SUBUNIT    0.0286
     17 C33           3.847090    0.652481    1.520857 C.3      1 SUBUNIT   -0.0281
     18 C41           5.179805    1.297259    1.094018 C.3      1 SUBUNIT   -0.0610
     19 N51           2.739832    1.343706   -0.595583 N.3      1 SUBUNIT   -0.3167
     20 H39           2.658065    2.454641    1.202889 H        1 SUBUNIT    0.0468
     21 H41           3.612378    1.785516   -0.914154 H        1 SUBUNIT    0.1222
     22 C53           1.597865    2.052274   -1.200677 C.3      1 SUBUNIT   -0.0162
     23 H45           1.666799    2.006689   -2.197214 H        1 SUBUNIT    0.0391
     24 H47           1.606607    3.009042   -0.909857 H        1 SUBUNIT    0.0391
     25 H49           0.744296    1.622519   -0.906082 H        1 SUBUNIT    0.0391
     26 O53           6.320074    0.555083    1.725655 O.3      1 SUBUNIT    0.0234
     27 H53           5.198911    2.252000    1.390936 H        1 SUBUNIT    0.0234
     28 H55           5.266718    1.256337    0.098615 H        1 SUBUNIT    0.0234
     29 H57           3.828169   -0.397980    1.196931 H        1 SUBUNIT    0.0316
     30 H59           0.123804    2.898566    2.342252 H        1 SUBUNIT    0.0387
     31 H61           7.184989    0.973535    1.448643 H        1 SUBUNIT    0.0000
     32 H63          -2.145879    1.526816   -0.482199 H        1 SUBUNIT    0.0000
@<TRIPOS>BOND
     1    1    2 1
     2    2    3 1
     3    3    4 1
     4    4    5 1
     5    5    6 1
     6    6    1 1
     7    1    7 2
     8    4    8 1
     9    4    9 1
    10    6   10 1
    11    6   11 1
    12    3   12 1
    13    3   13 1
    14   12   14 1
    15   12   15 1
    16   12   16 1
    17   14   17 1
    18   17   18 1
    19   14   19 1
    20   14   20 1
    21   19   21 1
    22   19   22 1
    23   22   23 1
    24   22   24 1
    25   22   25 1
    26   18   26 1
    27   18   27 1
    28   18   28 1
    29   17   29 1
    30    2   30 1
    31   26   31 1
    32    5   32 1
@<SCITEGIC>ATOM_PROPERTY
Formal Charge
SciTegic.value.StringValue
1 0
2 0
3 0
4 0
5 0
6 0
7 0
8 0
9 0
10 0
11 0
12 0
13 0
14 0
15 0
16 0
17 0
18 0
19 0
20 0
21 0
22 0
23 0
24 0
25 0
26 0
27 0
28 0
29 0
30 0
31 0
32 0

@<SCITEGIC>ATOM_PROPERTY
pdb_tempFactor
SciTegic.value.DoubleValue
1 0.00
2 0.00
3 0.00
4 0.00
5 0.00
6 0.00
7 0.00
8 0.00
9 0.00
10 0.00
11 0.00
12 0.00
13 0.00
14 0.00
15 0.00
16 0.00
17 0.00
18 0.00
19 0.00
20 0.00
21 0.00
22 0.00
23 0.00
24 0.00
25 0.00
26 0.00
27 0.00
28 0.00
29 0.00
30 0.00
31 0.00
32 0.00

@<SCITEGIC>ATOM_PROPERTY
pdb_occupancy
SciTegic.value.DoubleValue
1 1.00
2 1.00
3 1.00
4 1.00
5 1.00
6 1.00
7 1.00
8 1.00
9 1.00
10 1.00
11 1.00
12 1.00
13 1.00
14 1.00
15 1.00
16 1.00
17 1.00
18 1.00
19 1.00
20 1.00
21 1.00
22 1.00
23 1.00
24 1.00
25 1.00
26 1.00
27 1.00
28 1.00
29 1.00
30 1.00
31 1.00
32 1.00


#	copyright 2023 drugdesign.org
#	Creation time:	2024-01-11T11:24:54Z

@<SCITEGIC>ROOT_PROPERTY
Ligand:MaximumNumberOfAtoms
SciTegic.value.IntegerValue
100

@<SCITEGIC>ROOT_PROPERTY
Ligand:HydrogenAtomsCountTowardsMaximum
SciTegic.value.BooleanValue
FALSE

@<TRIPOS>MOLECULE
Molecule
   32    32     0 0 0
SMALL
USER_CHARGES


@<TRIPOS>ATOM
      1 C1           -1.020660    3.676248    0.759961 C.2      1 SUBUNIT    0.1495
      2 C2            0.179079    2.942660    1.246083 C.3      1 SUBUNIT    0.0234
      3 C3            0.136025    1.504478    0.746555 C.3      1 SUBUNIT   -0.0175
      4 C4           -1.189839    0.869636    1.187921 C.3      1 SUBUNIT   -0.0009
      5 N5           -2.289011    1.591341    0.505400 N.3      1 SUBUNIT   -0.3097
      6 C6           -2.368432    3.024033    0.876546 C.3      1 SUBUNIT    0.0549
      7 O13          -0.919628    4.839493    0.364025 O.2      1 SUBUNIT   -0.2979
      8 H15          -1.206300   -0.096476    0.930323 H        1 SUBUNIT    0.0431
      9 H17          -1.292908    0.952619    2.179128 H        1 SUBUNIT    0.0431
     10 H19          -3.011040    3.486450    0.265625 H        1 SUBUNIT    0.0510
     11 H21          -2.690295    3.101521    1.820156 H        1 SUBUNIT    0.0510
     12 C23           1.329372    0.734429    1.333083 C.3      1 SUBUNIT   -0.0328
     13 H25           0.194400    1.486047   -0.350572 H        1 SUBUNIT    0.0324
     14 C27           2.648585    1.404467    0.878607 C.3      1 SUBUNIT    0.0093
     15 H29           1.275898    0.746963    2.331574 H        1 SUBUNIT    0.0286
     16 H31           1.307233   -0.211498    1.009461 H        1 SUBUNIT    0.0286
     17 C33           3.847090    0.652481    1.520857 C.3      1 SUBUNIT   -0.0281
     18 C41           5.179805    1.297259    1.094018 C.3      1 SUBUNIT   -0.0610
     19 N51           2.739832    1.343706   -0.595583 N.3      1 SUBUNIT   -0.3167
     20 H39           2.658065    2.454641    1.202889 H        1 SUBUNIT    0.0468
     21 H41           3.612378    1.785516   -0.914154 H        1 SUBUNIT    0.1222
     22 C53           1.597865    2.052274   -1.200677 C.3      1 SUBUNIT   -0.0162
     23 H45           1.666799    2.006689   -2.197214 H        1 SUBUNIT    0.0391
     24 H47           1.606607    3.009042   -0.909857 H        1 SUBUNIT    0.0391
     25 H49           0.744296    1.622519   -0.906082 H        1 SUBUNIT    0.0391
     26 O53           6.320074    0.555083    1.725655 O.3      1 SUBUNIT    0.0234
     27 H53           5.198911    2.252000    1.390936 H        1 SUBUNIT    0.0234
     28 H55           5.266718    1.256337    0.098615 H        1 SUBUNIT    0.0234
     29 H57           3.828169   -0.397980    1.196931 H        1 SUBUNIT    0.0316
     30 H59           0.123804    2.898566    2.342252 H        1 SUBUNIT    0.0387
     31 H61           7.184989    0.973535    1.448643 H        1 SUBUNIT    0.0000
     32 H63          -2.145879    1.526816   -0.482199 H        1 SUBUNIT    0.0000
@<TRIPOS>BOND
     1    1    2 1
     2    2    3 1
     3    3    4 1
     4    4    5 1
     5    5    6 1
     6    6    1 1
     7    1    7 2
     8    4    8 1
     9    4    9 1
    10    6   10 1
    11    6   11 1
    12    3   12 1
    13    3   13 1
    14   12   14 1
    15   12   15 1
    16   12   16 1
    17   14   17 1
    18   17   18 1
    19   14   19 1
    20   14   20 1
    21   19   21 1
    22   19   22 1
    23   22   23 1
    24   22   24 1
    25   22   25 1
    26   18   26 1
    27   18   27 1
    28   18   28 1
    29   17   29 1
    30    2   30 1
    31   26   31 1
    32    5   32 1
@<SCITEGIC>ATOM_PROPERTY
Formal Charge
SciTegic.value.StringValue
1 0
2 0
3 0
4 0
5 0
6 0
7 0
8 0
9 0
10 0
11 0
12 0
13 0
14 0
15 0
16 0
17 0
18 0
19 0
20 0
21 0
22 0
23 0
24 0
25 0
26 0
27 0
28 0
29 0
30 0
31 0
32 0

@<SCITEGIC>ATOM_PROPERTY
pdb_tempFactor
SciTegic.value.DoubleValue
1 0.00
2 0.00
3 0.00
4 0.00
5 0.00
6 0.00
7 0.00
8 0.00
9 0.00
10 0.00
11 0.00
12 0.00
13 0.00
14 0.00
15 0.00
16 0.00
17 0.00
18 0.00
19 0.00
20 0.00
21 0.00
22 0.00
23 0.00
24 0.00
25 0.00
26 0.00
27 0.00
28 0.00
29 0.00
30 0.00
31 0.00
32 0.00

@<SCITEGIC>ATOM_PROPERTY
pdb_occupancy
SciTegic.value.DoubleValue
1 1.00
2 1.00
3 1.00
4 1.00
5 1.00
6 1.00
7 1.00
8 1.00
9 1.00
10 1.00
11 1.00
12 1.00
13 1.00
14 1.00
15 1.00
16 1.00
17 1.00
18 1.00
19 1.00
20 1.00
21 1.00
22 1.00
23 1.00
24 1.00
25 1.00
26 1.00
27 1.00
28 1.00
29 1.00
30 1.00
31 1.00
32 1.00

#	copyright 2023 drugdesign.org
#	Creation time:	2024-01-11T11:24:56Z

@<SCITEGIC>ROOT_PROPERTY
Ligand:MaximumNumberOfAtoms
SciTegic.value.IntegerValue
100

@<SCITEGIC>ROOT_PROPERTY
Ligand:HydrogenAtomsCountTowardsMaximum
SciTegic.value.BooleanValue
FALSE

@<TRIPOS>MOLECULE
Molecule
   32    32     0 0 0
SMALL
USER_CHARGES


@<TRIPOS>ATOM
      1 C1           -1.020660    3.676248    0.759961 C.2      1 SUBUNIT    0.1495
      2 C2            0.179079    2.942660    1.246083 C.3      1 SUBUNIT    0.0234
      3 C3            0.136025    1.504478    0.746555 C.3      1 SUBUNIT   -0.0175
      4 C4           -1.189839    0.869636    1.187921 C.3      1 SUBUNIT   -0.0009
      5 N5           -2.289011    1.591341    0.505400 N.3      1 SUBUNIT   -0.3097
      6 C6           -2.368432    3.024033    0.876546 C.3      1 SUBUNIT    0.0549
      7 O13          -0.919628    4.839493    0.364025 O.2      1 SUBUNIT   -0.2979
      8 H15          -1.206300   -0.096476    0.930323 H        1 SUBUNIT    0.0431
      9 H17          -1.292908    0.952619    2.179128 H        1 SUBUNIT    0.0431
     10 H19          -3.011040    3.486450    0.265625 H        1 SUBUNIT    0.0510
     11 H21          -2.690295    3.101521    1.820156 H        1 SUBUNIT    0.0510
     12 C23           1.329372    0.734429    1.333083 C.3      1 SUBUNIT   -0.0328
     13 H25           0.194400    1.486047   -0.350572 H        1 SUBUNIT    0.0324
     14 C27           2.648585    1.404467    0.878607 C.3      1 SUBUNIT    0.0093
     15 H29           1.275898    0.746963    2.331574 H        1 SUBUNIT    0.0286
     16 H31           1.307233   -0.211498    1.009461 H        1 SUBUNIT    0.0286
     17 C33           3.787151    0.996545    1.854131 C.3      1 SUBUNIT   -0.0281
     18 C41           5.117317    1.651434    1.434795 C.3      1 SUBUNIT   -0.0610
     19 N51           2.969895    0.959626   -0.494029 N.3      1 SUBUNIT   -0.3167
     20 H39           2.528981    2.497016    0.890670 H        1 SUBUNIT    0.0468
     21 H41           3.845309    1.396652   -0.811327 H        1 SUBUNIT    0.1222
     22 C53           1.884581    1.342558   -1.414765 C.3      1 SUBUNIT   -0.0162
     23 H45           2.109267    1.038372   -2.340456 H        1 SUBUNIT    0.0391
     24 H47           1.776430    2.336698   -1.408153 H        1 SUBUNIT    0.0391
     25 H49           1.030645    0.912782   -1.121267 H        1 SUBUNIT    0.0391
     26 O53           6.199402    1.243327    2.390065 O.3      1 SUBUNIT    0.0234
     27 H53           5.018589    2.646474    1.449092 H        1 SUBUNIT    0.0234
     28 H55           5.359190    1.354082    0.511142 H        1 SUBUNIT    0.0234
     29 H57           3.897421   -0.097269    1.841291 H        1 SUBUNIT    0.0316
     30 H59           0.123804    2.898566    2.342252 H        1 SUBUNIT    0.0387
     31 H61           7.062662    1.668340    2.117921 H        1 SUBUNIT    0.0000
     32 H63          -2.145879    1.526816   -0.482199 H        1 SUBUNIT    0.0000
@<TRIPOS>BOND
     1    1    2 1
     2    2    3 1
     3    3    4 1
     4    4    5 1
     5    5    6 1
     6    6    1 1
     7    1    7 2
     8    4    8 1
     9    4    9 1
    10    6   10 1
    11    6   11 1
    12    3   12 1
    13    3   13 1
    14   12   14 1
    15   12   15 1
    16   12   16 1
    17   14   17 1
    18   17   18 1
    19   14   19 1
    20   14   20 1
    21   19   21 1
    22   19   22 1
    23   22   23 1
    24   22   24 1
    25   22   25 1
    26   18   26 1
    27   18   27 1
    28   18   28 1
    29   17   29 1
    30    2   30 1
    31   26   31 1
    32    5   32 1
@<SCITEGIC>ATOM_PROPERTY
Formal Charge
SciTegic.value.StringValue
1 0
2 0
3 0
4 0
5 0
6 0
7 0
8 0
9 0
10 0
11 0
12 0
13 0
14 0
15 0
16 0
17 0
18 0
19 0
20 0
21 0
22 0
23 0
24 0
25 0
26 0
27 0
28 0
29 0
30 0
31 0
32 0

@<SCITEGIC>ATOM_PROPERTY
pdb_tempFactor
SciTegic.value.DoubleValue
1 0.00
2 0.00
3 0.00
4 0.00
5 0.00
6 0.00
7 0.00
8 0.00
9 0.00
10 0.00
11 0.00
12 0.00
13 0.00
14 0.00
15 0.00
16 0.00
17 0.00
18 0.00
19 0.00
20 0.00
21 0.00
22 0.00
23 0.00
24 0.00
25 0.00
26 0.00
27 0.00
28 0.00
29 0.00
30 0.00
31 0.00
32 0.00

@<SCITEGIC>ATOM_PROPERTY
pdb_occupancy
SciTegic.value.DoubleValue
1 1.00
2 1.00
3 1.00
4 1.00
5 1.00
6 1.00
7 1.00
8 1.00
9 1.00
10 1.00
11 1.00
12 1.00
13 1.00
14 1.00
15 1.00
16 1.00
17 1.00
18 1.00
19 1.00
20 1.00
21 1.00
22 1.00
23 1.00
24 1.00
25 1.00
26 1.00
27 1.00
28 1.00
29 1.00
30 1.00
31 1.00
32 1.00

#	copyright 2023 drugdesign.org
#	Creation time:	2024-01-11T11:24:58Z

@<SCITEGIC>ROOT_PROPERTY
Ligand:MaximumNumberOfAtoms
SciTegic.value.IntegerValue
100

@<SCITEGIC>ROOT_PROPERTY
Ligand:HydrogenAtomsCountTowardsMaximum
SciTegic.value.BooleanValue
FALSE

@<TRIPOS>MOLECULE
Molecule
   32    32     0 0 0
SMALL
USER_CHARGES


@<TRIPOS>ATOM
      1 C1           -1.020660    3.676248    0.759961 C.2      1 SUBUNIT    0.1495
      2 C2            0.179079    2.942660    1.246083 C.3      1 SUBUNIT    0.0234
      3 C3            0.136025    1.504478    0.746555 C.3      1 SUBUNIT   -0.0175
      4 C4           -1.189839    0.869636    1.187921 C.3      1 SUBUNIT   -0.0009
      5 N5           -2.289011    1.591341    0.505400 N.3      1 SUBUNIT   -0.3097
      6 C6           -2.368432    3.024033    0.876546 C.3      1 SUBUNIT    0.0549
      7 O13          -0.919628    4.839493    0.364025 O.2      1 SUBUNIT   -0.2979
      8 H15          -1.206300   -0.096476    0.930323 H        1 SUBUNIT    0.0431
      9 H17          -1.292908    0.952619    2.179128 H        1 SUBUNIT    0.0431
     10 H19          -3.011040    3.486450    0.265625 H        1 SUBUNIT    0.0510
     11 H21          -2.690295    3.101521    1.820156 H        1 SUBUNIT    0.0510
     12 C23           1.329372    0.734429    1.333083 C.3      1 SUBUNIT   -0.0328
     13 H25           0.194400    1.486047   -0.350572 H        1 SUBUNIT    0.0324
     14 C27           2.648585    1.404467    0.878607 C.3      1 SUBUNIT    0.0093
     15 H29           1.275898    0.746963    2.331574 H        1 SUBUNIT    0.0286
     16 H31           1.307233   -0.211498    1.009461 H        1 SUBUNIT    0.0286
     17 C33           3.650920    1.408412    2.065911 C.3      1 SUBUNIT   -0.0281
     18 C41           4.976657    2.074696    1.650519 C.3      1 SUBUNIT   -0.0610
     19 N51           3.209840    0.646260   -0.259536 N.3      1 SUBUNIT   -0.3167
     20 H39           2.446658    2.438535    0.565489 H        1 SUBUNIT    0.0468
     21 H41           4.088244    1.079386   -0.573905 H        1 SUBUNIT    0.1222
     22 C53           2.253421    0.639317   -1.380924 C.3      1 SUBUNIT   -0.0162
     23 H45           2.640121    0.124905   -2.146274 H        1 SUBUNIT    0.0391
     24 H47           2.071023    1.579146   -1.669901 H        1 SUBUNIT    0.0391
     25 H49           1.399293    0.209182   -1.088509 H        1 SUBUNIT    0.0391
     26 O53           5.926476    2.066504    2.811458 O.3      1 SUBUNIT    0.0234
     27 H53           4.802293    3.018541    1.369789 H        1 SUBUNIT    0.0234
     28 H55           5.379462    1.569347    0.887351 H        1 SUBUNIT    0.0234
     29 H57           3.843866    0.371850    2.377462 H        1 SUBUNIT    0.0316
     30 H59           0.123804    2.898566    2.342252 H        1 SUBUNIT    0.0387
     31 H61           6.786862    2.498913    2.541874 H        1 SUBUNIT    0.0000
     32 H63          -2.145879    1.526816   -0.482199 H        1 SUBUNIT    0.0000
@<TRIPOS>BOND
     1    1    2 1
     2    2    3 1
     3    3    4 1
     4    4    5 1
     5    5    6 1
     6    6    1 1
     7    1    7 2
     8    4    8 1
     9    4    9 1
    10    6   10 1
    11    6   11 1
    12    3   12 1
    13    3   13 1
    14   12   14 1
    15   12   15 1
    16   12   16 1
    17   14   17 1
    18   17   18 1
    19   14   19 1
    20   14   20 1
    21   19   21 1
    22   19   22 1
    23   22   23 1
    24   22   24 1
    25   22   25 1
    26   18   26 1
    27   18   27 1
    28   18   28 1
    29   17   29 1
    30    2   30 1
    31   26   31 1
    32    5   32 1
@<SCITEGIC>ATOM_PROPERTY
Formal Charge
SciTegic.value.StringValue
1 0
2 0
3 0
4 0
5 0
6 0
7 0
8 0
9 0
10 0
11 0
12 0
13 0
14 0
15 0
16 0
17 0
18 0
19 0
20 0
21 0
22 0
23 0
24 0
25 0
26 0
27 0
28 0
29 0
30 0
31 0
32 0

@<SCITEGIC>ATOM_PROPERTY
pdb_tempFactor
SciTegic.value.DoubleValue
1 0.00
2 0.00
3 0.00
4 0.00
5 0.00
6 0.00
7 0.00
8 0.00
9 0.00
10 0.00
11 0.00
12 0.00
13 0.00
14 0.00
15 0.00
16 0.00
17 0.00
18 0.00
19 0.00
20 0.00
21 0.00
22 0.00
23 0.00
24 0.00
25 0.00
26 0.00
27 0.00
28 0.00
29 0.00
30 0.00
31 0.00
32 0.00

@<SCITEGIC>ATOM_PROPERTY
pdb_occupancy
SciTegic.value.DoubleValue
1 1.00
2 1.00
3 1.00
4 1.00
5 1.00
6 1.00
7 1.00
8 1.00
9 1.00
10 1.00
11 1.00
12 1.00
13 1.00
14 1.00
15 1.00
16 1.00
17 1.00
18 1.00
19 1.00
20 1.00
21 1.00
22 1.00
23 1.00
24 1.00
25 1.00
26 1.00
27 1.00
28 1.00
29 1.00
30 1.00
31 1.00
32 1.00

#	copyright 2023 drugdesign.org
#	Creation time:	2024-01-11T11:25:00Z

@<SCITEGIC>ROOT_PROPERTY
Ligand:MaximumNumberOfAtoms
SciTegic.value.IntegerValue
100

@<SCITEGIC>ROOT_PROPERTY
Ligand:HydrogenAtomsCountTowardsMaximum
SciTegic.value.BooleanValue
FALSE

@<TRIPOS>MOLECULE
Molecule
   32    32     0 0 0
SMALL
USER_CHARGES


@<TRIPOS>ATOM
      1 C1           -1.020660    3.676248    0.759961 C.2      1 SUBUNIT    0.1495
      2 C2            0.179079    2.942660    1.246083 C.3      1 SUBUNIT    0.0234
      3 C3            0.136025    1.504478    0.746555 C.3      1 SUBUNIT   -0.0175
      4 C4           -1.189839    0.869636    1.187921 C.3      1 SUBUNIT   -0.0009
      5 N5           -2.289011    1.591341    0.505400 N.3      1 SUBUNIT   -0.3097
      6 C6           -2.368432    3.024033    0.876546 C.3      1 SUBUNIT    0.0549
      7 O13          -0.919628    4.839493    0.364025 O.2      1 SUBUNIT   -0.2979
      8 H15          -1.206300   -0.096476    0.930323 H        1 SUBUNIT    0.0431
      9 H17          -1.292908    0.952619    2.179128 H        1 SUBUNIT    0.0431
     10 H19          -3.011040    3.486450    0.265625 H        1 SUBUNIT    0.0510
     11 H21          -2.690295    3.101521    1.820156 H        1 SUBUNIT    0.0510
     12 C23           1.329372    0.734429    1.333083 C.3      1 SUBUNIT   -0.0328
     13 H25           0.194400    1.486047   -0.350572 H        1 SUBUNIT    0.0324
     14 C27           2.648585    1.404467    0.878607 C.3      1 SUBUNIT    0.0093
     15 H29           1.275898    0.746963    2.331574 H        1 SUBUNIT    0.0286
     16 H31           1.307233   -0.211498    1.009461 H        1 SUBUNIT    0.0286
     17 C33           3.464737    1.820861    2.133554 C.3      1 SUBUNIT   -0.0281
     18 C41           4.784978    2.498010    1.718227 C.3      1 SUBUNIT   -0.0610
     19 N51           3.422765    0.445426    0.062432 N.3      1 SUBUNIT   -0.3167
     20 H39           2.419932    2.295699    0.277328 H        1 SUBUNIT    0.0468
     21 H41           4.303822    0.876055   -0.247920 H        1 SUBUNIT    0.1222
     22 C53           2.642554    0.048005   -1.123158 C.3      1 SUBUNIT   -0.0162
     23 H45           3.172643   -0.600274   -1.669654 H        1 SUBUNIT    0.0391
     24 H47           2.436490    0.857012   -1.673704 H        1 SUBUNIT    0.0391
     25 H49           1.788427   -0.382746   -0.831650 H        1 SUBUNIT    0.0391
     26 O53           5.554025    2.890308    2.944878 O.3      1 SUBUNIT    0.0234
     27 H53           4.585351    3.313856    1.175456 H        1 SUBUNIT    0.0234
     28 H55           5.329984    1.860738    1.173334 H        1 SUBUNIT    0.0234
     29 H57           3.684937    0.925860    2.732919 H        1 SUBUNIT    0.0316
     30 H59           0.123804    2.898566    2.342252 H        1 SUBUNIT    0.0387
     31 H61           6.410844    3.329767    2.675336 H        1 SUBUNIT    0.0000
     32 H63          -2.145879    1.526816   -0.482199 H        1 SUBUNIT    0.0000
@<TRIPOS>BOND
     1    1    2 1
     2    2    3 1
     3    3    4 1
     4    4    5 1
     5    5    6 1
     6    6    1 1
     7    1    7 2
     8    4    8 1
     9    4    9 1
    10    6   10 1
    11    6   11 1
    12    3   12 1
    13    3   13 1
    14   12   14 1
    15   12   15 1
    16   12   16 1
    17   14   17 1
    18   17   18 1
    19   14   19 1
    20   14   20 1
    21   19   21 1
    22   19   22 1
    23   22   23 1
    24   22   24 1
    25   22   25 1
    26   18   26 1
    27   18   27 1
    28   18   28 1
    29   17   29 1
    30    2   30 1
    31   26   31 1
    32    5   32 1
@<SCITEGIC>ATOM_PROPERTY
Formal Charge
SciTegic.value.StringValue
1 0
2 0
3 0
4 0
5 0
6 0
7 0
8 0
9 0
10 0
11 0
12 0
13 0
14 0
15 0
16 0
17 0
18 0
19 0
20 0
21 0
22 0
23 0
24 0
25 0
26 0
27 0
28 0
29 0
30 0
31 0
32 0

@<SCITEGIC>ATOM_PROPERTY
pdb_tempFactor
SciTegic.value.DoubleValue
1 0.00
2 0.00
3 0.00
4 0.00
5 0.00
6 0.00
7 0.00
8 0.00
9 0.00
10 0.00
11 0.00
12 0.00
13 0.00
14 0.00
15 0.00
16 0.00
17 0.00
18 0.00
19 0.00
20 0.00
21 0.00
22 0.00
23 0.00
24 0.00
25 0.00
26 0.00
27 0.00
28 0.00
29 0.00
30 0.00
31 0.00
32 0.00

@<SCITEGIC>ATOM_PROPERTY
pdb_occupancy
SciTegic.value.DoubleValue
1 1.00
2 1.00
3 1.00
4 1.00
5 1.00
6 1.00
7 1.00
8 1.00
9 1.00
10 1.00
11 1.00
12 1.00
13 1.00
14 1.00
15 1.00
16 1.00
17 1.00
18 1.00
19 1.00
20 1.00
21 1.00
22 1.00
23 1.00
24 1.00
25 1.00
26 1.00
27 1.00
28 1.00
29 1.00
30 1.00
31 1.00
32 1.00

#	copyright 2023 drugdesign.org
#	Creation time:	2024-01-11T11:25:03Z

@<SCITEGIC>ROOT_PROPERTY
Ligand:MaximumNumberOfAtoms
SciTegic.value.IntegerValue
100

@<SCITEGIC>ROOT_PROPERTY
Ligand:HydrogenAtomsCountTowardsMaximum
SciTegic.value.BooleanValue
FALSE

@<TRIPOS>MOLECULE
Molecule
   32    32     0 0 0
SMALL
USER_CHARGES


@<TRIPOS>ATOM
      1 C1           -1.020660    3.676248    0.759961 C.2      1 SUBUNIT    0.1495
      2 C2            0.179079    2.942660    1.246083 C.3      1 SUBUNIT    0.0234
      3 C3            0.136025    1.504478    0.746555 C.3      1 SUBUNIT   -0.0175
      4 C4           -1.189839    0.869636    1.187921 C.3      1 SUBUNIT   -0.0009
      5 N5           -2.289011    1.591341    0.505400 N.3      1 SUBUNIT   -0.3097
      6 C6           -2.368432    3.024033    0.876546 C.3      1 SUBUNIT    0.0549
      7 O13          -0.919628    4.839493    0.364025 O.2      1 SUBUNIT   -0.2979
      8 H15          -1.206300   -0.096476    0.930323 H        1 SUBUNIT    0.0431
      9 H17          -1.292908    0.952619    2.179128 H        1 SUBUNIT    0.0431
     10 H19          -3.011040    3.486450    0.265625 H        1 SUBUNIT    0.0510
     11 H21          -2.690295    3.101521    1.820156 H        1 SUBUNIT    0.0510
     12 C23           1.329372    0.734429    1.333083 C.3      1 SUBUNIT   -0.0328
     13 H25           0.194400    1.486047   -0.350572 H        1 SUBUNIT    0.0324
     14 C27           2.648585    1.404467    0.878607 C.3      1 SUBUNIT    0.0093
     15 H29           1.275898    0.746963    2.331574 H        1 SUBUNIT    0.0286
     16 H31           1.307233   -0.211498    1.009461 H        1 SUBUNIT    0.0286
     17 C33           3.267322    2.172673    2.079192 C.3      1 SUBUNIT   -0.0281
     18 C41           4.582052    2.858664    1.660905 C.3      1 SUBUNIT   -0.0610
     19 N51           3.583158    0.361771    0.404675 N.3      1 SUBUNIT   -0.3167
     20 H39           2.440361    2.108481    0.060609 H        1 SUBUNIT    0.0468
     21 H41           4.466211    0.791363    0.098590 H        1 SUBUNIT    0.1222
     22 C53           2.989817   -0.368761   -0.729595 C.3      1 SUBUNIT   -0.0162
     23 H45           3.627586   -1.071753   -1.044189 H        1 SUBUNIT    0.0391
     24 H47           2.802890    0.269356   -1.476535 H        1 SUBUNIT    0.0391
     25 H49           2.135839   -0.800236   -0.438723 H        1 SUBUNIT    0.0391
     26 O53           5.159413    3.592580    2.834798 O.3      1 SUBUNIT    0.0234
     27 H53           4.400041    3.505798    0.920537 H        1 SUBUNIT    0.0234
     28 H55           5.233644    2.168117    1.346857 H        1 SUBUNIT    0.0234
     29 H57           3.467678    1.463768    2.895320 H        1 SUBUNIT    0.0316
     30 H59           0.123804    2.898566    2.342252 H        1 SUBUNIT    0.0387
     31 H61           6.012655    4.037779    2.563335 H        1 SUBUNIT    0.0000
     32 H63          -2.145879    1.526816   -0.482199 H        1 SUBUNIT    0.0000
@<TRIPOS>BOND
     1    1    2 1
     2    2    3 1
     3    3    4 1
     4    4    5 1
     5    5    6 1
     6    6    1 1
     7    1    7 2
     8    4    8 1
     9    4    9 1
    10    6   10 1
    11    6   11 1
    12    3   12 1
    13    3   13 1
    14   12   14 1
    15   12   15 1
    16   12   16 1
    17   14   17 1
    18   17   18 1
    19   14   19 1
    20   14   20 1
    21   19   21 1
    22   19   22 1
    23   22   23 1
    24   22   24 1
    25   22   25 1
    26   18   26 1
    27   18   27 1
    28   18   28 1
    29   17   29 1
    30    2   30 1
    31   26   31 1
    32    5   32 1
@<SCITEGIC>ATOM_PROPERTY
Formal Charge
SciTegic.value.StringValue
1 0
2 0
3 0
4 0
5 0
6 0
7 0
8 0
9 0
10 0
11 0
12 0
13 0
14 0
15 0
16 0
17 0
18 0
19 0
20 0
21 0
22 0
23 0
24 0
25 0
26 0
27 0
28 0
29 0
30 0
31 0
32 0

@<SCITEGIC>ATOM_PROPERTY
pdb_tempFactor
SciTegic.value.DoubleValue
1 0.00
2 0.00
3 0.00
4 0.00
5 0.00
6 0.00
7 0.00
8 0.00
9 0.00
10 0.00
11 0.00
12 0.00
13 0.00
14 0.00
15 0.00
16 0.00
17 0.00
18 0.00
19 0.00
20 0.00
21 0.00
22 0.00
23 0.00
24 0.00
25 0.00
26 0.00
27 0.00
28 0.00
29 0.00
30 0.00
31 0.00
32 0.00

@<SCITEGIC>ATOM_PROPERTY
pdb_occupancy
SciTegic.value.DoubleValue
1 1.00
2 1.00
3 1.00
4 1.00
5 1.00
6 1.00
7 1.00
8 1.00
9 1.00
10 1.00
11 1.00
12 1.00
13 1.00
14 1.00
15 1.00
16 1.00
17 1.00
18 1.00
19 1.00
20 1.00
21 1.00
22 1.00
23 1.00
24 1.00
25 1.00
26 1.00
27 1.00
28 1.00
29 1.00
30 1.00
31 1.00
32 1.00

#	copyright 2023 drugdesign.org
#	Creation time:	2024-01-11T11:25:05Z

@<SCITEGIC>ROOT_PROPERTY
Ligand:MaximumNumberOfAtoms
SciTegic.value.IntegerValue
100

@<SCITEGIC>ROOT_PROPERTY
Ligand:HydrogenAtomsCountTowardsMaximum
SciTegic.value.BooleanValue
FALSE

@<TRIPOS>MOLECULE
Molecule
   32    32     0 0 0
SMALL
USER_CHARGES


@<TRIPOS>ATOM
      1 C1           -1.020660    3.676248    0.759961 C.2      1 SUBUNIT    0.1495
      2 C2            0.179079    2.942660    1.246083 C.3      1 SUBUNIT    0.0234
      3 C3            0.136025    1.504478    0.746555 C.3      1 SUBUNIT   -0.0175
      4 C4           -1.189839    0.869636    1.187921 C.3      1 SUBUNIT   -0.0009
      5 N5           -2.289011    1.591341    0.505400 N.3      1 SUBUNIT   -0.3097
      6 C6           -2.368432    3.024033    0.876546 C.3      1 SUBUNIT    0.0549
      7 O13          -0.919628    4.839493    0.364025 O.2      1 SUBUNIT   -0.2979
      8 H15          -1.206300   -0.096476    0.930323 H        1 SUBUNIT    0.0431
      9 H17          -1.292908    0.952619    2.179128 H        1 SUBUNIT    0.0431
     10 H19          -3.011040    3.486450    0.265625 H        1 SUBUNIT    0.0510
     11 H21          -2.690295    3.101521    1.820156 H        1 SUBUNIT    0.0510
     12 C23           1.329372    0.734429    1.333083 C.3      1 SUBUNIT   -0.0328
     13 H25           0.194400    1.486047   -0.350572 H        1 SUBUNIT    0.0324
     14 C27           2.648585    1.404467    0.878607 C.3      1 SUBUNIT    0.0093
     15 H29           1.275898    0.746963    2.331574 H        1 SUBUNIT    0.0286
     16 H31           1.307233   -0.211498    1.009461 H        1 SUBUNIT    0.0286
     17 C33           3.095641    2.428643    1.958230 C.3      1 SUBUNIT   -0.0281
     18 C41           4.405762    3.120761    1.535599 C.3      1 SUBUNIT   -0.0610
     19 N51           3.684436    0.364583    0.702801 N.3      1 SUBUNIT   -0.3167
     20 H39           2.486627    1.924765   -0.075947 H        1 SUBUNIT    0.0468
     21 H41           4.568749    0.794215    0.400433 H        1 SUBUNIT    0.1222
     22 C53           3.253623   -0.608343   -0.317059 C.3      1 SUBUNIT   -0.0162
     23 H45           3.959111   -1.307936   -0.430075 H        1 SUBUNIT    0.0391
     24 H47           3.109188   -0.137643   -1.187482 H        1 SUBUNIT    0.0391
     25 H49           2.399860   -1.040489   -0.026550 H        1 SUBUNIT    0.0391
     26 O53           4.816422    4.103235    2.592057 O.3      1 SUBUNIT    0.0234
     27 H53           4.265022    3.601894    0.670290 H        1 SUBUNIT    0.0234
     28 H55           5.124220    2.434496    1.421953 H        1 SUBUNIT    0.0234
     29 H57           3.250254    1.902613    2.911194 H        1 SUBUNIT    0.0316
     30 H59           0.123804    2.898566    2.342252 H        1 SUBUNIT    0.0387
     31 H61           5.666674    4.552410    2.317775 H        1 SUBUNIT    0.0000
     32 H63          -2.145879    1.526816   -0.482199 H        1 SUBUNIT    0.0000
@<TRIPOS>BOND
     1    1    2 1
     2    2    3 1
     3    3    4 1
     4    4    5 1
     5    5    6 1
     6    6    1 1
     7    1    7 2
     8    4    8 1
     9    4    9 1
    10    6   10 1
    11    6   11 1
    12    3   12 1
    13    3   13 1
    14   12   14 1
    15   12   15 1
    16   12   16 1
    17   14   17 1
    18   17   18 1
    19   14   19 1
    20   14   20 1
    21   19   21 1
    22   19   22 1
    23   22   23 1
    24   22   24 1
    25   22   25 1
    26   18   26 1
    27   18   27 1
    28   18   28 1
    29   17   29 1
    30    2   30 1
    31   26   31 1
    32    5   32 1
@<SCITEGIC>ATOM_PROPERTY
Formal Charge
SciTegic.value.StringValue
1 0
2 0
3 0
4 0
5 0
6 0
7 0
8 0
9 0
10 0
11 0
12 0
13 0
14 0
15 0
16 0
17 0
18 0
19 0
20 0
21 0
22 0
23 0
24 0
25 0
26 0
27 0
28 0
29 0
30 0
31 0
32 0

@<SCITEGIC>ATOM_PROPERTY
pdb_tempFactor
SciTegic.value.DoubleValue
1 0.00
2 0.00
3 0.00
4 0.00
5 0.00
6 0.00
7 0.00
8 0.00
9 0.00
10 0.00
11 0.00
12 0.00
13 0.00
14 0.00
15 0.00
16 0.00
17 0.00
18 0.00
19 0.00
20 0.00
21 0.00
22 0.00
23 0.00
24 0.00
25 0.00
26 0.00
27 0.00
28 0.00
29 0.00
30 0.00
31 0.00
32 0.00

@<SCITEGIC>ATOM_PROPERTY
pdb_occupancy
SciTegic.value.DoubleValue
1 1.00
2 1.00
3 1.00
4 1.00
5 1.00
6 1.00
7 1.00
8 1.00
9 1.00
10 1.00
11 1.00
12 1.00
13 1.00
14 1.00
15 1.00
16 1.00
17 1.00
18 1.00
19 1.00
20 1.00
21 1.00
22 1.00
23 1.00
24 1.00
25 1.00
26 1.00
27 1.00
28 1.00
29 1.00
30 1.00
31 1.00
32 1.00

#	copyright 2023 drugdesign.org
#	Creation time:	2024-01-11T11:25:07Z

@<SCITEGIC>ROOT_PROPERTY
Ligand:MaximumNumberOfAtoms
SciTegic.value.IntegerValue
100

@<SCITEGIC>ROOT_PROPERTY
Ligand:HydrogenAtomsCountTowardsMaximum
SciTegic.value.BooleanValue
FALSE

@<TRIPOS>MOLECULE
Molecule
   32    32     0 0 0
SMALL
USER_CHARGES


@<TRIPOS>ATOM
      1 C1           -1.020660    3.676248    0.759961 C.2      1 SUBUNIT    0.1495
      2 C2            0.179079    2.942660    1.246083 C.3      1 SUBUNIT    0.0234
      3 C3            0.136025    1.504478    0.746555 C.3      1 SUBUNIT   -0.0175
      4 C4           -1.189839    0.869636    1.187921 C.3      1 SUBUNIT   -0.0009
      5 N5           -2.289011    1.591341    0.505400 N.3      1 SUBUNIT   -0.3097
      6 C6           -2.368432    3.024033    0.876546 C.3      1 SUBUNIT    0.0549
      7 O13          -0.919628    4.839493    0.364025 O.2      1 SUBUNIT   -0.2979
      8 H15          -1.206300   -0.096476    0.930323 H        1 SUBUNIT    0.0431
      9 H17          -1.292908    0.952619    2.179128 H        1 SUBUNIT    0.0431
     10 H19          -3.011040    3.486450    0.265625 H        1 SUBUNIT    0.0510
     11 H21          -2.690295    3.101521    1.820156 H        1 SUBUNIT    0.0510
     12 C23           1.329372    0.734429    1.333083 C.3      1 SUBUNIT   -0.0328
     13 H25           0.194400    1.486047   -0.350572 H        1 SUBUNIT    0.0324
     14 C27           2.648585    1.404467    0.878607 C.3      1 SUBUNIT    0.0093
     15 H29           1.275898    0.746963    2.331574 H        1 SUBUNIT    0.0286
     16 H31           1.307233   -0.211498    1.009461 H        1 SUBUNIT    0.0286
     17 C33           2.949437    2.613761    1.806765 C.3      1 SUBUNIT   -0.0281
     18 C41           4.255757    3.310066    1.379271 C.3      1 SUBUNIT   -0.0610
     19 N51           3.745559    0.416664    0.957010 N.3      1 SUBUNIT   -0.3167
     20 H39           2.544768    1.754570   -0.158101 H        1 SUBUNIT    0.0468
     21 H41           4.630632    0.846950    0.657809 H        1 SUBUNIT    0.1222
     22 C53           3.453166   -0.731583    0.080464 C.3      1 SUBUNIT   -0.0162
     23 H45           4.199277   -1.394760    0.139051 H        1 SUBUNIT    0.0391
     24 H47           3.361915   -0.415820   -0.864006 H        1 SUBUNIT    0.0391
     25 H49           2.599645   -1.164328    0.370789 H        1 SUBUNIT    0.0391
     26 O53           4.524453    4.472303    2.288672 O.3      1 SUBUNIT    0.0234
     27 H53           4.167226    3.637155    0.438403 H        1 SUBUNIT    0.0234
     28 H55           5.014173    2.660730    1.436057 H        1 SUBUNIT    0.0234
     29 H57           3.046365    2.257298    2.842281 H        1 SUBUNIT    0.0316
     30 H59           0.123804    2.898566    2.342252 H        1 SUBUNIT    0.0387
     31 H61           5.372236    4.924196    2.011234 H        1 SUBUNIT    0.0000
     32 H63          -2.145879    1.526816   -0.482199 H        1 SUBUNIT    0.0000
@<TRIPOS>BOND
     1    1    2 1
     2    2    3 1
     3    3    4 1
     4    4    5 1
     5    5    6 1
     6    6    1 1
     7    1    7 2
     8    4    8 1
     9    4    9 1
    10    6   10 1
    11    6   11 1
    12    3   12 1
    13    3   13 1
    14   12   14 1
    15   12   15 1
    16   12   16 1
    17   14   17 1
    18   17   18 1
    19   14   19 1
    20   14   20 1
    21   19   21 1
    22   19   22 1
    23   22   23 1
    24   22   24 1
    25   22   25 1
    26   18   26 1
    27   18   27 1
    28   18   28 1
    29   17   29 1
    30    2   30 1
    31   26   31 1
    32    5   32 1
@<SCITEGIC>ATOM_PROPERTY
Formal Charge
SciTegic.value.StringValue
1 0
2 0
3 0
4 0
5 0
6 0
7 0
8 0
9 0
10 0
11 0
12 0
13 0
14 0
15 0
16 0
17 0
18 0
19 0
20 0
21 0
22 0
23 0
24 0
25 0
26 0
27 0
28 0
29 0
30 0
31 0
32 0

@<SCITEGIC>ATOM_PROPERTY
pdb_tempFactor
SciTegic.value.DoubleValue
1 0.00
2 0.00
3 0.00
4 0.00
5 0.00
6 0.00
7 0.00
8 0.00
9 0.00
10 0.00
11 0.00
12 0.00
13 0.00
14 0.00
15 0.00
16 0.00
17 0.00
18 0.00
19 0.00
20 0.00
21 0.00
22 0.00
23 0.00
24 0.00
25 0.00
26 0.00
27 0.00
28 0.00
29 0.00
30 0.00
31 0.00
32 0.00

@<SCITEGIC>ATOM_PROPERTY
pdb_occupancy
SciTegic.value.DoubleValue
1 1.00
2 1.00
3 1.00
4 1.00
5 1.00
6 1.00
7 1.00
8 1.00
9 1.00
10 1.00
11 1.00
12 1.00
13 1.00
14 1.00
15 1.00
16 1.00
17 1.00
18 1.00
19 1.00
20 1.00
21 1.00
22 1.00
23 1.00
24 1.00
25 1.00
26 1.00
27 1.00
28 1.00
29 1.00
30 1.00
31 1.00
32 1.00

#	copyright 2023 drugdesign.org
#	Creation time:	2024-01-11T11:25:09Z

@<SCITEGIC>ROOT_PROPERTY
Ligand:MaximumNumberOfAtoms
SciTegic.value.IntegerValue
100

@<SCITEGIC>ROOT_PROPERTY
Ligand:HydrogenAtomsCountTowardsMaximum
SciTegic.value.BooleanValue
FALSE

@<TRIPOS>MOLECULE
Molecule
   32    32     0 0 0
SMALL
USER_CHARGES


@<TRIPOS>ATOM
      1 C1           -1.020660    3.676248    0.759961 C.2      1 SUBUNIT    0.1495
      2 C2            0.179079    2.942660    1.246083 C.3      1 SUBUNIT    0.0234
      3 C3            0.136025    1.504478    0.746555 C.3      1 SUBUNIT   -0.0175
      4 C4           -1.189839    0.869636    1.187921 C.3      1 SUBUNIT   -0.0009
      5 N5           -2.289011    1.591341    0.505400 N.3      1 SUBUNIT   -0.3097
      6 C6           -2.368432    3.024033    0.876546 C.3      1 SUBUNIT    0.0549
      7 O13          -0.919628    4.839493    0.364025 O.2      1 SUBUNIT   -0.2979
      8 H15          -1.206300   -0.096476    0.930323 H        1 SUBUNIT    0.0431
      9 H17          -1.292908    0.952619    2.179128 H        1 SUBUNIT    0.0431
     10 H19          -3.011040    3.486450    0.265625 H        1 SUBUNIT    0.0510
     11 H21          -2.690295    3.101521    1.820156 H        1 SUBUNIT    0.0510
     12 C23           1.329372    0.734429    1.333083 C.3      1 SUBUNIT   -0.0328
     13 H25           0.194400    1.486047   -0.350572 H        1 SUBUNIT    0.0324
     14 C27           2.648585    1.404467    0.878607 C.3      1 SUBUNIT    0.0093
     15 H29           1.275898    0.746963    2.331574 H        1 SUBUNIT    0.0286
     16 H31           1.307233   -0.211498    1.009461 H        1 SUBUNIT    0.0286
     17 C33           2.676565    2.870394    1.393052 C.3      1 SUBUNIT   -0.0281
     18 C41           3.976117    3.571735    0.953334 C.3      1 SUBUNIT   -0.0610
     19 N51           3.791705    0.648224    1.432347 N.3      1 SUBUNIT   -0.3167
     20 H39           2.703958    1.399753   -0.219129 H        1 SUBUNIT    0.0468
     21 H41           4.677348    1.081402    1.139066 H        1 SUBUNIT    0.1222
     22 C53           3.757688   -0.743150    0.947350 C.3      1 SUBUNIT   -0.0162
     23 H45           4.533520   -1.247715    1.326052 H        1 SUBUNIT    0.0391
     24 H47           3.811661   -0.749994   -0.051197 H        1 SUBUNIT    0.0391
     25 H49           2.904771   -1.177088    1.237670 H        1 SUBUNIT    0.0391
     26 O53           3.979844    4.983196    1.461042 O.3      1 SUBUNIT    0.0234
     27 H53           4.031170    3.577036   -0.045163 H        1 SUBUNIT    0.0234
     28 H55           4.763186    3.081318    1.327591 H        1 SUBUNIT    0.0234
     29 H57           2.615181    2.867816    2.490767 H        1 SUBUNIT    0.0316
     30 H59           0.123804    2.898566    2.342252 H        1 SUBUNIT    0.0387
     31 H61           4.823235    5.438357    1.175671 H        1 SUBUNIT    0.0000
     32 H63          -2.145879    1.526816   -0.482199 H        1 SUBUNIT    0.0000
@<TRIPOS>BOND
     1    1    2 1
     2    2    3 1
     3    3    4 1
     4    4    5 1
     5    5    6 1
     6    6    1 1
     7    1    7 2
     8    4    8 1
     9    4    9 1
    10    6   10 1
    11    6   11 1
    12    3   12 1
    13    3   13 1
    14   12   14 1
    15   12   15 1
    16   12   16 1
    17   14   17 1
    18   17   18 1
    19   14   19 1
    20   14   20 1
    21   19   21 1
    22   19   22 1
    23   22   23 1
    24   22   24 1
    25   22   25 1
    26   18   26 1
    27   18   27 1
    28   18   28 1
    29   17   29 1
    30    2   30 1
    31   26   31 1
    32    5   32 1
@<SCITEGIC>ATOM_PROPERTY
Formal Charge
SciTegic.value.StringValue
1 0
2 0
3 0
4 0
5 0
6 0
7 0
8 0
9 0
10 0
11 0
12 0
13 0
14 0
15 0
16 0
17 0
18 0
19 0
20 0
21 0
22 0
23 0
24 0
25 0
26 0
27 0
28 0
29 0
30 0
31 0
32 0

@<SCITEGIC>ATOM_PROPERTY
pdb_tempFactor
SciTegic.value.DoubleValue
1 0.00
2 0.00
3 0.00
4 0.00
5 0.00
6 0.00
7 0.00
8 0.00
9 0.00
10 0.00
11 0.00
12 0.00
13 0.00
14 0.00
15 0.00
16 0.00
17 0.00
18 0.00
19 0.00
20 0.00
21 0.00
22 0.00
23 0.00
24 0.00
25 0.00
26 0.00
27 0.00
28 0.00
29 0.00
30 0.00
31 0.00
32 0.00

@<SCITEGIC>ATOM_PROPERTY
pdb_occupancy
SciTegic.value.DoubleValue
1 1.00
2 1.00
3 1.00
4 1.00
5 1.00
6 1.00
7 1.00
8 1.00
9 1.00
10 1.00
11 1.00
12 1.00
13 1.00
14 1.00
15 1.00
16 1.00
17 1.00
18 1.00
19 1.00
20 1.00
21 1.00
22 1.00
23 1.00
24 1.00
25 1.00
26 1.00
27 1.00
28 1.00
29 1.00
30 1.00
31 1.00
32 1.00

#	copyright 2023 drugdesign.org
#	Creation time:	2024-01-11T11:25:11Z

@<SCITEGIC>ROOT_PROPERTY
Ligand:MaximumNumberOfAtoms
SciTegic.value.IntegerValue
100

@<SCITEGIC>ROOT_PROPERTY
Ligand:HydrogenAtomsCountTowardsMaximum
SciTegic.value.BooleanValue
FALSE

@<TRIPOS>MOLECULE
Molecule
   35    36     0 0 0
SMALL
USER_CHARGES


@<TRIPOS>ATOM
      1 C1           -1.020660    3.676248    0.759961 C.2      1 SUBUNIT    0.1495
      2 C2            0.179079    2.942660    1.246083 C.3      1 SUBUNIT    0.0234
      3 C3            0.136025    1.504478    0.746555 C.3      1 SUBUNIT   -0.0175
      4 C4           -1.189839    0.869636    1.187921 C.3      1 SUBUNIT   -0.0009
      5 N5           -2.289011    1.591341    0.505400 N.3      1 SUBUNIT   -0.3097
      6 C6           -2.368432    3.024033    0.876546 C.3      1 SUBUNIT    0.0549
      7 O13          -0.919628    4.839493    0.364025 O.2      1 SUBUNIT   -0.2979
      8 H15          -1.206300   -0.096476    0.930323 H        1 SUBUNIT    0.0431
      9 H17          -1.292908    0.952619    2.179128 H        1 SUBUNIT    0.0431
     10 H19          -3.011040    3.486450    0.265625 H        1 SUBUNIT    0.0510
     11 H21          -2.690295    3.101521    1.820156 H        1 SUBUNIT    0.0510
     12 C23           1.329372    0.734429    1.333083 C.3      1 SUBUNIT   -0.0328
     13 H25           0.194400    1.486047   -0.350572 H        1 SUBUNIT    0.0324
     14 C27           2.648585    1.404467    0.878607 C.3      1 SUBUNIT    0.0093
     15 H29           1.275898    0.746963    2.331574 H        1 SUBUNIT    0.0286
     16 H31           1.307233   -0.211498    1.009461 H        1 SUBUNIT    0.0286
     17 C33           2.676565    2.870394    1.393052 C.3      1 SUBUNIT   -0.0281
     18 C41           3.976117    3.571735    0.953334 C.3      1 SUBUNIT   -0.0610
     19 N51           3.791705    0.648224    1.432347 N.3      1 SUBUNIT   -0.3167
     20 H39           2.703958    1.399753   -0.219129 H        1 SUBUNIT    0.0468
     21 H41           4.677348    1.081402    1.139066 H        1 SUBUNIT    0.1222
     22 C53           3.757688   -0.743150    0.947350 C.3      1 SUBUNIT   -0.0162
     23 H45           4.533520   -1.247715    1.326052 H        1 SUBUNIT    0.0391
     24 H47           3.811661   -0.749994   -0.051197 H        1 SUBUNIT    0.0391
     25 H49           2.904771   -1.177088    1.237670 H        1 SUBUNIT    0.0391
     26 O53           3.979844    4.983196    1.461042 O.3      1 SUBUNIT    0.0234
     27 H53           4.031170    3.577036   -0.045163 H        1 SUBUNIT    0.0234
     28 H55           4.763186    3.081318    1.327591 H        1 SUBUNIT    0.0234
     29 C57           1.474928    3.645091    0.819395 C.3      1 SUBUNIT   -0.0391
     30 H59           2.615181    2.867816    2.490767 H        1 SUBUNIT    0.0316
     31 H61           1.480495    4.581093    1.171345 H        1 SUBUNIT    0.0277
     32 H64           0.123804    2.898566    2.342252 H        1 SUBUNIT    0.0387
     33 H66           1.533388    3.663420   -0.178727 H        1 SUBUNIT    0.0277
     34 H68           4.823235    5.438357    1.175671 H        1 SUBUNIT    0.0000
     35 H70          -2.145879    1.526816   -0.482199 H        1 SUBUNIT    0.0000
@<TRIPOS>BOND
     1    1    2 1
     2    2    3 1
     3    3    4 1
     4    4    5 1
     5    5    6 1
     6    6    1 1
     7    1    7 2
     8    4    8 1
     9    4    9 1
    10    6   10 1
    11    6   11 1
    12    3   12 1
    13    3   13 1
    14   12   14 1
    15   12   15 1
    16   12   16 1
    17   14   17 1
    18   17   18 1
    19   14   19 1
    20   14   20 1
    21   19   21 1
    22   19   22 1
    23   22   23 1
    24   22   24 1
    25   22   25 1
    26   18   26 1
    27   18   27 1
    28   18   28 1
    29   17   29 1
    30   17   30 1
    31   29   31 1
    32    2   29 1
    33    2   32 1
    34   29   33 1
    35   26   34 1
    36    5   35 1
@<SCITEGIC>ATOM_PROPERTY
Formal Charge
SciTegic.value.StringValue
1 0
2 0
3 0
4 0
5 0
6 0
7 0
8 0
9 0
10 0
11 0
12 0
13 0
14 0
15 0
16 0
17 0
18 0
19 0
20 0
21 0
22 0
23 0
24 0
25 0
26 0
27 0
28 0
29 0
30 0
31 0
32 0
33 0
34 0
35 0

@<SCITEGIC>ATOM_PROPERTY
pdb_tempFactor
SciTegic.value.DoubleValue
1 0.00
2 0.00
3 0.00
4 0.00
5 0.00
6 0.00
7 0.00
8 0.00
9 0.00
10 0.00
11 0.00
12 0.00
13 0.00
14 0.00
15 0.00
16 0.00
17 0.00
18 0.00
19 0.00
20 0.00
21 0.00
22 0.00
23 0.00
24 0.00
25 0.00
26 0.00
27 0.00
28 0.00
29 0.00
30 0.00
31 0.00
32 0.00
33 0.00
34 0.00
35 0.00

@<SCITEGIC>ATOM_PROPERTY
pdb_occupancy
SciTegic.value.DoubleValue
1 1.00
2 1.00
3 1.00
4 1.00
5 1.00
6 1.00
7 1.00
8 1.00
9 1.00
10 1.00
11 1.00
12 1.00
13 1.00
14 1.00
15 1.00
16 1.00
17 1.00
18 1.00
19 1.00
20 1.00
21 1.00
22 1.00
23 1.00
24 1.00
25 1.00
26 1.00
27 1.00
28 1.00
29 1.00
30 1.00
31 1.00
32 1.00
33 1.00
34 1.00
35 1.00

