#	copyright drugdesign.org
#	Creation time:	2024-01-11T11:03:00Z

@<SCITEGIC>ROOT_PROPERTY
Ligand:MaximumNumberOfAtoms
SciTegic.value.IntegerValue
100

@<SCITEGIC>ROOT_PROPERTY
Ligand:HydrogenAtomsCountTowardsMaximum
SciTegic.value.BooleanValue
FALSE

@<TRIPOS>MOLECULE
butaclamol
   29    33     0 0 0
SMALL
USER_CHARGES


@<TRIPOS>ATOM
      1 C1           -3.382400    0.576600   -2.231800 C.3      1 SUBUNIT    0.0832
      2 C2           -1.824300    0.051400   -2.253500 C.3      1 SUBUNIT    0.1518
      3 N3           -1.523600   -0.610800   -0.878800 N.4      1 SUBUNIT    0.1391
      4 C4           -2.440800   -1.797100   -0.624900 C.3      1 SUBUNIT    0.1731
      5 C5           -4.017900   -1.373500   -0.592000 C.3      1 SUBUNIT    0.0745
      6 C6           -0.716100    1.139100   -2.670600 C.2      1 SUBUNIT   -0.0059
      7 C7            0.530900    1.342100   -1.869600 C.2      1 SUBUNIT   -0.0267
      8 C8            0.763200    0.475600   -0.491900 C.3      1 SUBUNIT    0.0850
      9 C9           -0.005800   -0.889800   -0.709800 C.3      1 SUBUNIT    0.1834
     10 C10          -0.953200    1.914500   -3.900300 C.2      1 SUBUNIT    0.0078
     11 C11           0.011100    2.892600   -4.348000 C.2      1 SUBUNIT    0.0007
     12 C12           1.242100    3.090000   -3.569300 C.2      1 SUBUNIT    0.0039
     13 C13           1.510900    2.318600   -2.343900 C.2      1 SUBUNIT   -0.0433
     14 C14           2.895300    2.574200   -1.580100 C.3      1 SUBUNIT    0.0404
     15 C15           3.810300    1.297500   -1.417800 C.3      1 SUBUNIT    0.0404
     16 C16           3.515600    0.564700   -0.033000 C.2      1 SUBUNIT   -0.0437
     17 C17           2.134400    0.210700    0.391800 C.2      1 SUBUNIT   -0.0337
     18 C18           1.968600   -0.412900    1.725400 C.2      1 SUBUNIT    0.0046
     19 C19           3.126100   -0.711600    2.595700 C.2      1 SUBUNIT    0.0003
     20 C20           4.488900   -0.378100    2.151900 C.2      1 SUBUNIT    0.0003
     21 C21           4.675100    0.261700    0.842200 C.2      1 SUBUNIT    0.0038
     22 C22          -4.514800   -0.538600   -1.912700 C.3      1 SUBUNIT    0.0769
     23 C23          -6.052700    0.086700   -1.713100 C.3      1 SUBUNIT   -0.0090
     24 C24          -6.182500    1.121000   -0.491300 C.3      1 SUBUNIT    0.0136
     25 C25          -7.155200   -1.039000   -1.409900 C.3      1 SUBUNIT    0.0136
     26 C26          -6.557200    0.836600   -3.072700 C.3      1 SUBUNIT    0.0136
     27 O27          -4.581800   -1.446800   -3.102900 O.3      1 SUBUNIT   -0.3890
     28 H28          -3.697500   -1.883200   -3.257900 H        1 SUBUNIT    0.2109
     29 H29          -1.782900    0.078400   -0.126100 H        1 SUBUNIT    0.2303
@<TRIPOS>BOND
     1    1   22 1
     2    1    2 1
     3    2    3 1
     4    2    6 1
     5    3    4 1
     6    3    9 1
     7    3   29 1
     8    4    5 1
     9    5   22 1
    10    6    7 1
    11    6   10 2
    12    7    8 1
    13    7   13 2
    14    8    9 1
    15    8   17 1
    16   10   11 1
    17   11   12 2
    18   12   13 1
    19   13   14 1
    20   14   15 1
    21   15   16 1
    22   16   17 2
    23   16   21 1
    24   17   18 1
    25   18   19 2
    26   19   20 1
    27   20   21 2
    28   22   23 1
    29   22   27 1
    30   23   24 1
    31   23   25 1
    32   23   26 1
    33   27   28 1
@<SCITEGIC>ATOM_PROPERTY
Formal Charge
SciTegic.value.StringValue
1 0
2 0
3 0
4 0
5 0
6 0
7 0
8 0
9 0
10 0
11 0
12 0
13 0
14 0
15 0
16 0
17 0
18 0
19 0
20 0
21 0
22 0
23 0
24 0
25 0
26 0
27 0
28 0
29 0

@<SCITEGIC>ATOM_PROPERTY
pdb_tempFactor
SciTegic.value.DoubleValue
1 0.00
2 0.00
3 0.00
4 0.00
5 0.00
6 0.00
7 0.00
8 0.00
9 0.00
10 0.00
11 0.00
12 0.00
13 0.00
14 0.00
15 0.00
16 0.00
17 0.00
18 0.00
19 0.00
20 0.00
21 0.00
22 0.00
23 0.00
24 0.00
25 0.00
26 0.00
27 0.00
28 0.00
29 0.00

@<SCITEGIC>ATOM_PROPERTY
pdb_occupancy
SciTegic.value.DoubleValue
1 1.00
2 1.00
3 1.00
4 1.00
5 1.00
6 1.00
7 1.00
8 1.00
9 1.00
10 1.00
11 1.00
12 1.00
13 1.00
14 1.00
15 1.00
16 1.00
17 1.00
18 1.00
19 1.00
20 1.00
21 1.00
22 1.00
23 1.00
24 1.00
25 1.00
26 1.00
27 1.00
28 1.00
29 1.00

#	copyright drugdesign.org
#	Creation time:	2024-01-11T11:03:00Z

@<SCITEGIC>ROOT_PROPERTY
Ligand:MaximumNumberOfAtoms
SciTegic.value.IntegerValue
100

@<SCITEGIC>ROOT_PROPERTY
Ligand:HydrogenAtomsCountTowardsMaximum
SciTegic.value.BooleanValue
FALSE

@<TRIPOS>MOLECULE
haloperidol
   28    30     0 0 0
SMALL
USER_CHARGES


@<TRIPOS>ATOM
      1 Cl1         -11.389600    1.955300    0.763200 Cl       1 SUBUNIT   -0.0843
      2 C2           -9.809800    1.248800    0.436400 C.2      1 SUBUNIT    0.0406
      3 C3           -9.134700    1.525500   -0.828400 C.2      1 SUBUNIT    0.0207
      4 C4           -7.813000    0.939400   -1.102900 C.2      1 SUBUNIT    0.0080
      5 C5           -7.159000    0.069800   -0.108700 C.2      1 SUBUNIT   -0.0162
      6 C6           -7.845900   -0.211200    1.159500 C.2      1 SUBUNIT    0.0080
      7 C7           -9.166200    0.381000    1.427100 C.2      1 SUBUNIT    0.0207
      8 C8           -5.689400   -0.565700   -0.444500 C.3      1 SUBUNIT    0.0963
      9 C9           -4.840400    0.474600   -1.336400 C.3      1 SUBUNIT    0.0789
     10 C10          -3.320900   -0.003200   -1.668800 C.3      1 SUBUNIT    0.1730
     11 N11          -2.466600   -0.346500   -0.327100 N.4      1 SUBUNIT    0.1336
     12 C12          -3.261800   -1.404000    0.571900 C.3      1 SUBUNIT    0.1730
     13 C13          -4.783000   -0.918100    0.882000 C.3      1 SUBUNIT    0.0789
     14 O14          -5.961200   -1.804700   -1.225800 O.3      1 SUBUNIT   -0.3849
     15 H15          -5.105600   -2.235900   -1.499800 H        1 SUBUNIT    0.2113
     16 C16          -0.953700   -0.818500   -0.699600 C.3      1 SUBUNIT    0.1701
     17 C17           0.069900   -0.939700    0.564400 C.3      1 SUBUNIT    0.0470
     18 C18           1.631500   -0.966600    0.119300 C.3      1 SUBUNIT    0.0845
     19 C19           2.530200    0.165100    0.776600 C.2      1 SUBUNIT    0.1625
     20 O20           2.298000    1.361100    0.443400 O.2      1 SUBUNIT   -0.2942
     21 C21           3.666300   -0.193900    1.809200 C.2      1 SUBUNIT    0.0177
     22 C22           5.039500    0.290000    1.575400 C.2      1 SUBUNIT    0.0146
     23 C23           6.117300   -0.034400    2.525300 C.2      1 SUBUNIT    0.0398
     24 C24           5.830600   -0.842800    3.711500 C.2      1 SUBUNIT    0.1228
     25 C25           4.467500   -1.330300    3.952900 C.2      1 SUBUNIT    0.0398
     26 C26           3.389500   -1.007700    3.003400 C.2      1 SUBUNIT    0.0146
     27 F27           6.860600   -1.150100    4.614900 F        1 SUBUNIT   -0.2070
     28 H28          -2.386400    0.533100    0.240500 H        1 SUBUNIT    0.2299
@<TRIPOS>BOND
     1    1    2 1
     2    2    3 2
     3    2    7 1
     4    3    4 1
     5    4    5 2
     6    5    6 1
     7    5    8 1
     8    6    7 2
     9    8    9 1
    10    8   13 1
    11    8   14 1
    12    9   10 1
    13   10   11 1
    14   11   12 1
    15   11   16 1
    16   11   28 1
    17   12   13 1
    18   14   15 1
    19   16   17 1
    20   17   18 1
    21   18   19 1
    22   19   20 2
    23   19   21 1
    24   21   22 2
    25   21   26 1
    26   22   23 1
    27   23   24 2
    28   24   25 1
    29   24   27 1
    30   25   26 2
@<SCITEGIC>ATOM_PROPERTY
Formal Charge
SciTegic.value.StringValue
1 0
2 0
3 0
4 0
5 0
6 0
7 0
8 0
9 0
10 0
11 0
12 0
13 0
14 0
15 0
16 0
17 0
18 0
19 0
20 0
21 0
22 0
23 0
24 0
25 0
26 0
27 0
28 0

@<SCITEGIC>ATOM_PROPERTY
pdb_tempFactor
SciTegic.value.DoubleValue
1 0.00
2 0.00
3 0.00
4 0.00
5 0.00
6 0.00
7 0.00
8 0.00
9 0.00
10 0.00
11 0.00
12 0.00
13 0.00
14 0.00
15 0.00
16 0.00
17 0.00
18 0.00
19 0.00
20 0.00
21 0.00
22 0.00
23 0.00
24 0.00
25 0.00
26 0.00
27 0.00
28 0.00

@<SCITEGIC>ATOM_PROPERTY
pdb_occupancy
SciTegic.value.DoubleValue
1 1.00
2 1.00
3 1.00
4 1.00
5 1.00
6 1.00
7 1.00
8 1.00
9 1.00
10 1.00
11 1.00
12 1.00
13 1.00
14 1.00
15 1.00
16 1.00
17 1.00
18 1.00
19 1.00
20 1.00
21 1.00
22 1.00
23 1.00
24 1.00
25 1.00
26 1.00
27 1.00
28 1.00

#	copyright drugdesign.org
#	Creation time:	2024-01-11T11:03:00Z

@<SCITEGIC>ROOT_PROPERTY
Ligand:MaximumNumberOfAtoms
SciTegic.value.IntegerValue
100

@<SCITEGIC>ROOT_PROPERTY
Ligand:HydrogenAtomsCountTowardsMaximum
SciTegic.value.BooleanValue
FALSE

@<TRIPOS>MOLECULE
molindone
   22    24     0 0 0
SMALL
USER_CHARGES


@<TRIPOS>ATOM
      1 O1            1.473700    0.072600   -1.833900 O.2      1 SUBUNIT   -0.2936
      2 C2           -4.959600    0.023800    0.193900 C.3      1 SUBUNIT    0.1988
      3 C3           -3.673500   -0.910700   -0.118200 C.3      1 SUBUNIT    0.1989
      4 N4           -2.545300   -0.130600   -0.771600 N.4      1 SUBUNIT    0.1369
      5 C5           -3.114900    0.635200   -2.025700 C.3      1 SUBUNIT    0.1989
      6 C6           -4.433400    1.517600   -1.696600 C.3      1 SUBUNIT    0.1988
      7 C7           -1.258400   -0.964200   -1.075800 C.3      1 SUBUNIT    0.1817
      8 C8           -0.045900   -0.811400    0.019000 C.3      1 SUBUNIT    0.0963
      9 C9            1.369200   -0.382700   -0.627300 C.2      1 SUBUNIT    0.1706
     10 O10          -5.480600    0.700200   -1.064200 O.3      1 SUBUNIT   -0.3741
     11 C11           2.586900   -0.579300    0.346800 C.2      1 SUBUNIT    0.0365
     12 C12           2.524400   -1.298300    1.555900 C.2      1 SUBUNIT    0.0068
     13 C13           1.221000   -2.025800    2.100300 C.3      1 SUBUNIT    0.0494
     14 C14           0.095800   -2.155200    0.920400 C.3      1 SUBUNIT    0.0211
     15 C15           4.049100   -0.025200    0.175100 C.2      1 SUBUNIT   -0.0224
     16 C16           4.813900   -0.433800    1.303600 C.2      1 SUBUNIT   -0.0036
     17 N17           3.881800   -1.227200    2.189900 N.pl3    1 SUBUNIT   -0.2653
     18 C18           4.369500    0.836900   -1.148800 C.3      1 SUBUNIT    0.0340
     19 C19           3.529000    0.462300   -2.480500 C.3      1 SUBUNIT    0.0089
     20 C20           6.328100   -0.231900    1.780700 C.3      1 SUBUNIT    0.0579
     21 H21           4.143900   -1.690500    3.173100 H        1 SUBUNIT    0.1336
     22 H22          -2.271500    0.607600   -0.056400 H        1 SUBUNIT    0.2300
@<TRIPOS>BOND
     1    1    9 2
     2    2   10 1
     3    2    3 1
     4    3    4 1
     5    4    5 1
     6    4    7 1
     7    4   22 1
     8    5    6 1
     9    6   10 1
    10    7    8 1
    11    8    9 1
    12    8   14 1
    13    9   11 1
    14   11   12 2
    15   11   15 1
    16   12   13 1
    17   12   17 1
    18   13   14 1
    19   15   16 2
    20   15   18 1
    21   16   17 1
    22   16   20 1
    23   17   21 1
    24   18   19 1
@<SCITEGIC>ATOM_PROPERTY
Formal Charge
SciTegic.value.StringValue
1 0
2 0
3 0
4 0
5 0
6 0
7 0
8 0
9 0
10 0
11 0
12 0
13 0
14 0
15 0
16 0
17 0
18 0
19 0
20 0
21 0
22 0

@<SCITEGIC>ATOM_PROPERTY
pdb_tempFactor
SciTegic.value.DoubleValue
1 0.00
2 0.00
3 0.00
4 0.00
5 0.00
6 0.00
7 0.00
8 0.00
9 0.00
10 0.00
11 0.00
12 0.00
13 0.00
14 0.00
15 0.00
16 0.00
17 0.00
18 0.00
19 0.00
20 0.00
21 0.00
22 0.00

@<SCITEGIC>ATOM_PROPERTY
pdb_occupancy
SciTegic.value.DoubleValue
1 1.00
2 1.00
3 1.00
4 1.00
5 1.00
6 1.00
7 1.00
8 1.00
9 1.00
10 1.00
11 1.00
12 1.00
13 1.00
14 1.00
15 1.00
16 1.00
17 1.00
18 1.00
19 1.00
20 1.00
21 1.00
22 1.00

#	copyright drugdesign.org
#	Creation time:	2024-01-11T11:03:00Z

@<SCITEGIC>ROOT_PROPERTY
Ligand:MaximumNumberOfAtoms
SciTegic.value.IntegerValue
100

@<SCITEGIC>ROOT_PROPERTY
Ligand:HydrogenAtomsCountTowardsMaximum
SciTegic.value.BooleanValue
FALSE

@<TRIPOS>MOLECULE
pimozide
   36    40     0 0 0
SMALL
USER_CHARGES


@<TRIPOS>ATOM
      1 O1           -7.092400    0.392900    0.063800 O.2      1 SUBUNIT   -0.2533
      2 C2           -7.282600   -0.841700   -0.091200 C.2      1 SUBUNIT    0.3097
      3 N3           -8.528700   -1.442300    0.087200 N.am     1 SUBUNIT   -0.2670
      4 C4           -8.404600   -2.880400   -0.189600 C.2      1 SUBUNIT    0.0558
      5 C5           -7.034400   -3.151000   -0.544200 C.2      1 SUBUNIT    0.0587
      6 N6           -6.336000   -1.848700   -0.469400 N.am     1 SUBUNIT   -0.2501
      7 H7           -9.332800   -1.008200    0.343000 H        1 SUBUNIT    0.1574
      8 C8           -9.392600   -3.920800   -0.150600 C.2      1 SUBUNIT    0.0256
      9 C9           -8.959400   -5.271800   -0.485700 C.2      1 SUBUNIT    0.0021
     10 C10          -7.554200   -5.548000   -0.851300 C.2      1 SUBUNIT    0.0021
     11 C11          -6.571700   -4.486200   -0.886000 C.2      1 SUBUNIT    0.0258
     12 C12          -4.842100   -1.685600   -0.767700 C.3      1 SUBUNIT    0.0901
     13 C13          -4.525300   -0.354100   -1.605400 C.3      1 SUBUNIT    0.0621
     14 C14          -2.969800   -0.249600   -2.017100 C.3      1 SUBUNIT    0.1716
     15 N15          -1.983700   -0.392400   -0.745600 N.4      1 SUBUNIT    0.1335
     16 C16          -2.318200   -1.733600    0.078600 C.3      1 SUBUNIT    0.1716
     17 C17          -3.867600   -1.807200    0.517900 C.3      1 SUBUNIT    0.0621
     18 C18          -0.443200   -0.306300   -1.234700 C.3      1 SUBUNIT    0.1697
     19 C19           0.561700   -1.256900   -0.408400 C.3      1 SUBUNIT    0.0398
     20 C20           0.814000   -0.718400    1.082900 C.3      1 SUBUNIT    0.0165
     21 C21           1.905900    0.445900    1.140600 C.3      1 SUBUNIT    0.0493
     22 C22           1.990000    1.273000   -0.231400 C.2      1 SUBUNIT   -0.0403
     23 C23           0.750900    1.578100   -0.966600 C.2      1 SUBUNIT    0.0072
     24 C24           0.819200    2.328500   -2.216000 C.2      1 SUBUNIT    0.0393
     25 C25           2.124500    2.775900   -2.735900 C.2      1 SUBUNIT    0.1228
     26 C26           3.363400    2.474700   -2.006900 C.2      1 SUBUNIT    0.0393
     27 C27           3.296100    1.724100   -0.757600 C.2      1 SUBUNIT    0.0072
     28 C28           3.350400    0.055000    1.775600 C.2      1 SUBUNIT   -0.0403
     29 C29           3.450200   -0.559300    3.115900 C.2      1 SUBUNIT    0.0072
     30 C30           4.769500   -0.909600    3.679900 C.2      1 SUBUNIT    0.0393
     31 C31           5.996200   -0.646100    2.905600 C.2      1 SUBUNIT    0.1228
     32 C32           5.902200   -0.032200    1.569200 C.2      1 SUBUNIT    0.0393
     33 C33           4.583800    0.317600    1.005000 C.2      1 SUBUNIT    0.0072
     34 F34           7.254900   -0.979600    3.441600 F        1 SUBUNIT   -0.2069
     35 F35           2.187400    3.491200   -3.927500 F        1 SUBUNIT   -0.2069
     36 H36          -2.175800    0.419300   -0.090700 H        1 SUBUNIT    0.2299
@<TRIPOS>BOND
     1    1    2 2
     2    2    3 1
     3    2    6 1
     4    3    4 1
     5    3    7 1
     6    4    5 2
     7    4    8 1
     8    5    6 1
     9    5   11 1
    10    6   12 1
    11    8    9 2
    12    9   10 1
    13   10   11 2
    14   12   13 1
    15   12   17 1
    16   13   14 1
    17   14   15 1
    18   15   16 1
    19   15   18 1
    20   15   36 1
    21   16   17 1
    22   18   19 1
    23   19   20 1
    24   20   21 1
    25   21   22 1
    26   21   28 1
    27   22   23 2
    28   22   27 1
    29   23   24 1
    30   24   25 2
    31   25   26 1
    32   25   35 1
    33   26   27 2
    34   28   29 2
    35   28   33 1
    36   29   30 1
    37   30   31 2
    38   31   32 1
    39   31   34 1
    40   32   33 2
@<SCITEGIC>ATOM_PROPERTY
Formal Charge
SciTegic.value.StringValue
1 0
2 0
3 0
4 0
5 0
6 0
7 0
8 0
9 0
10 0
11 0
12 0
13 0
14 0
15 0
16 0
17 0
18 0
19 0
20 0
21 0
22 0
23 0
24 0
25 0
26 0
27 0
28 0
29 0
30 0
31 0
32 0
33 0
34 0
35 0
36 0

@<SCITEGIC>ATOM_PROPERTY
pdb_tempFactor
SciTegic.value.DoubleValue
1 0.00
2 0.00
3 0.00
4 0.00
5 0.00
6 0.00
7 0.00
8 0.00
9 0.00
10 0.00
11 0.00
12 0.00
13 0.00
14 0.00
15 0.00
16 0.00
17 0.00
18 0.00
19 0.00
20 0.00
21 0.00
22 0.00
23 0.00
24 0.00
25 0.00
26 0.00
27 0.00
28 0.00
29 0.00
30 0.00
31 0.00
32 0.00
33 0.00
34 0.00
35 0.00
36 0.00

@<SCITEGIC>ATOM_PROPERTY
pdb_occupancy
SciTegic.value.DoubleValue
1 1.00
2 1.00
3 1.00
4 1.00
5 1.00
6 1.00
7 1.00
8 1.00
9 1.00
10 1.00
11 1.00
12 1.00
13 1.00
14 1.00
15 1.00
16 1.00
17 1.00
18 1.00
19 1.00
20 1.00
21 1.00
22 1.00
23 1.00
24 1.00
25 1.00
26 1.00
27 1.00
28 1.00
29 1.00
30 1.00
31 1.00
32 1.00
33 1.00
34 1.00
35 1.00
36 1.00

#	copyright drugdesign.org
#	Creation time:	2024-01-11T11:03:00Z

@<SCITEGIC>ROOT_PROPERTY
Ligand:MaximumNumberOfAtoms
SciTegic.value.IntegerValue
100

@<SCITEGIC>ROOT_PROPERTY
Ligand:HydrogenAtomsCountTowardsMaximum
SciTegic.value.BooleanValue
FALSE

@<TRIPOS>MOLECULE
Ro221319
   20    22     0 0 0
SMALL
USER_CHARGES


@<TRIPOS>ATOM
      1 O1            2.752100    0.378700   -1.081000 O.2      1 SUBUNIT   -0.2936
      2 C2           -0.106000   -0.228200   -1.405700 C.3      1 SUBUNIT    0.1817
      3 C3            0.677400   -0.493000    0.004200 C.3      1 SUBUNIT    0.0995
      4 C4            0.391300   -1.975500    0.559700 C.3      1 SUBUNIT    0.0121
      5 C5           -1.175200   -2.223000    0.596900 C.3      1 SUBUNIT    0.0435
      6 C6           -1.878600   -1.903600   -0.834900 C.3      1 SUBUNIT    0.1698
      7 C7            2.240100   -0.251900   -0.098300 C.2      1 SUBUNIT    0.1708
      8 N8           -1.615500   -0.470100   -1.315100 N.4      1 SUBUNIT    0.1320
      9 C9            3.066800   -0.862600    1.082400 C.2      1 SUBUNIT    0.0365
     10 C10           2.565800   -1.756600    2.011200 C.2      1 SUBUNIT    0.0071
     11 C11           1.106400   -2.273500    2.009600 C.3      1 SUBUNIT    0.0529
     12 C12           4.546700   -0.635700    1.470400 C.2      1 SUBUNIT   -0.0224
     13 C13           4.861800   -1.407900    2.613600 C.2      1 SUBUNIT   -0.0036
     14 N14           3.642700   -2.114500    2.979500 N.pl3    1 SUBUNIT   -0.2653
     15 H15           3.560400   -2.703700    3.714300 H        1 SUBUNIT    0.1336
     16 C16           6.154200   -1.638000    3.504000 C.3      1 SUBUNIT    0.0579
     17 C17           5.465600    0.325600    0.648600 C.3      1 SUBUNIT    0.0340
     18 C18           5.306200    0.149100   -0.955700 C.3      1 SUBUNIT    0.0089
     19 C19          -2.328900   -0.154500   -2.669200 C.3      1 SUBUNIT    0.2147
     20 H20          -2.013700    0.193800   -0.576200 H        1 SUBUNIT    0.2297
@<TRIPOS>BOND
     1    1    7 2
     2    2    8 1
     3    2    3 1
     4    3    4 1
     5    3    7 1
     6    4    5 1
     7    4   11 1
     8    5    6 1
     9    6    8 1
    10    7    9 1
    11    8   19 1
    12    8   20 1
    13    9   10 2
    14    9   12 1
    15   10   11 1
    16   10   14 1
    17   12   13 2
    18   12   17 1
    19   13   14 1
    20   13   16 1
    21   14   15 1
    22   17   18 1
@<SCITEGIC>ATOM_PROPERTY
Formal Charge
SciTegic.value.StringValue
1 0
2 0
3 0
4 0
5 0
6 0
7 0
8 0
9 0
10 0
11 0
12 0
13 0
14 0
15 0
16 0
17 0
18 0
19 0
20 0

@<SCITEGIC>ATOM_PROPERTY
pdb_tempFactor
SciTegic.value.DoubleValue
1 0.00
2 0.00
3 0.00
4 0.00
5 0.00
6 0.00
7 0.00
8 0.00
9 0.00
10 0.00
11 0.00
12 0.00
13 0.00
14 0.00
15 0.00
16 0.00
17 0.00
18 0.00
19 0.00
20 0.00

@<SCITEGIC>ATOM_PROPERTY
pdb_occupancy
SciTegic.value.DoubleValue
1 1.00
2 1.00
3 1.00
4 1.00
5 1.00
6 1.00
7 1.00
8 1.00
9 1.00
10 1.00
11 1.00
12 1.00
13 1.00
14 1.00
15 1.00
16 1.00
17 1.00
18 1.00
19 1.00
20 1.00

#	copyright drugdesign.org
#	Creation time:	2024-01-11T11:03:00Z

@<SCITEGIC>ROOT_PROPERTY
Ligand:MaximumNumberOfAtoms
SciTegic.value.IntegerValue
100

@<SCITEGIC>ROOT_PROPERTY
Ligand:HydrogenAtomsCountTowardsMaximum
SciTegic.value.BooleanValue
FALSE

@<TRIPOS>MOLECULE
sulpiride
   27    28     0 0 0
SMALL
USER_CHARGES


@<TRIPOS>ATOM
      1 H1            1.290327   -0.851314    1.730390 H        1 SUBUNIT    0.1498
      2 C2           -1.063487   -0.795086    0.337971 C.3      1 SUBUNIT    0.1345
      3 C7            0.270755   -0.117049   -0.024887 C.3      1 SUBUNIT    0.1469
      4 N8            1.445548   -0.404821    0.935276 N.am     1 SUBUNIT   -0.3075
      5 C10           2.735688   -0.028510    0.657582 C.2      1 SUBUNIT    0.2456
      6 O11           2.986581    0.631160   -0.385484 O.2      1 SUBUNIT   -0.2718
      7 C12           3.864388   -0.448010    1.684283 C.2      1 SUBUNIT    0.0660
      8 C13           3.516225   -1.159397    2.927094 C.2      1 SUBUNIT    0.0870
      9 C14           4.598263   -1.537407    3.874398 C.2      1 SUBUNIT    0.0328
     10 C15           6.006127   -1.211977    3.588954 C.2      1 SUBUNIT   -0.0080
     11 C16           6.355182   -0.504284    2.356074 C.2      1 SUBUNIT   -0.0407
     12 C17           5.280806   -0.124550    1.409965 C.2      1 SUBUNIT    0.0054
     13 O18           2.095513   -1.481714    3.185999 O.3      1 SUBUNIT   -0.3485
     14 C19           1.720174   -2.059895    4.529257 C.3      1 SUBUNIT    0.2028
     15 S20           8.148259   -0.089891    1.991758 S.o2     1 SUBUNIT    1.4113
     16 O21           8.178910    1.053737    1.051384 O.2      1 SUBUNIT   -0.5685
     17 O22           8.927860   -0.069290    3.275008 O.2      1 SUBUNIT   -0.5685
     18 N23           8.718813   -1.401467    1.120109 N.pl3    1 SUBUNIT   -0.3846
     19 H24           9.675842   -1.304884    0.826233 H        1 SUBUNIT    0.0881
     20 H25           8.635073   -2.237328    1.636016 H        1 SUBUNIT    0.0881
     21 N41          -2.469920   -0.250882    0.025671 N.4      1 SUBUNIT    0.0000
     22 C42          -3.501109   -1.256085    0.571392 C.3      1 SUBUNIT    0.0000
     23 C43          -2.732019   -2.421459    1.221006 C.3      1 SUBUNIT    0.0000
     24 C44          -1.225502   -2.136497    1.076770 C.3      1 SUBUNIT    0.0000
     25 C50          -2.642406   -0.099702   -1.476924 C.3      1 SUBUNIT    0.0000
     26 H52          -2.595663    0.637528    0.467164 H        1 SUBUNIT    0.0000
     27 C54          -3.593411    1.075700   -1.769524 C.3      1 SUBUNIT    0.0000
@<TRIPOS>BOND
     1    1    4 1
     2    2    3 1
     3    3    4 1
     4    4    5 1
     5    5    6 2
     6    5    7 1
     7    7    8 2
     8    7   12 1
     9    8    9 1
    10    8   13 1
    11    9   10 2
    12   10   11 1
    13   11   12 2
    14   11   15 1
    15   13   14 1
    16   15   16 2
    17   15   17 2
    18   15   18 1
    19   18   19 1
    20   18   20 1
    21   21   22 1
    22   22   23 1
    23   23   24 1
    24    2   21 1
    25    2   24 1
    26   21   25 1
    27   21   26 1
    28   25   27 1
@<SCITEGIC>ATOM_PROPERTY
Formal Charge
SciTegic.value.StringValue
1 0
2 0
3 0
4 0
5 0
6 0
7 0
8 0
9 0
10 0
11 0
12 0
13 0
14 0
15 0
16 0
17 0
18 0
19 0
20 0
21 0
22 0
23 0
24 0
25 0
26 0
27 0

@<SCITEGIC>ATOM_PROPERTY
pdb_tempFactor
SciTegic.value.DoubleValue
1 0.00
2 0.00
3 0.00
4 0.00
5 0.00
6 0.00
7 0.00
8 0.00
9 0.00
10 0.00
11 0.00
12 0.00
13 0.00
14 0.00
15 0.00
16 0.00
17 0.00
18 0.00
19 0.00
20 0.00
21 0.00
22 0.00
23 0.00
24 0.00
25 0.00
26 0.00
27 0.00

@<SCITEGIC>ATOM_PROPERTY
pdb_occupancy
SciTegic.value.DoubleValue
1 1.00
2 1.00
3 1.00
4 1.00
5 1.00
6 1.00
7 1.00
8 1.00
9 1.00
10 1.00
11 1.00
12 1.00
13 1.00
14 1.00
15 1.00
16 1.00
17 1.00
18 1.00
19 1.00
20 1.00
21 1.00
22 1.00
23 1.00
24 1.00
25 1.00
26 1.00
27 1.00

#	copyright drugdesign.org
#	Creation time:	2024-01-11T11:03:00Z

@<SCITEGIC>ROOT_PROPERTY
Ligand:MaximumNumberOfAtoms
SciTegic.value.IntegerValue
100

@<SCITEGIC>ROOT_PROPERTY
Ligand:HydrogenAtomsCountTowardsMaximum
SciTegic.value.BooleanValue
FALSE

@<TRIPOS>MOLECULE
dexclamol
   28    32     0 0 0
SMALL
USER_CHARGES


@<TRIPOS>ATOM
      1 C1           -3.239700    0.360900   -2.247400 C.3      1 SUBUNIT    0.0829
      2 C2           -1.681600   -0.164200   -2.269100 C.3      1 SUBUNIT    0.1518
      3 N3           -1.380900   -0.826400   -0.894400 N.4      1 SUBUNIT    0.1391
      4 C4           -2.298100   -2.012700   -0.640500 C.3      1 SUBUNIT    0.1731
      5 C5           -3.875200   -1.589100   -0.607500 C.3      1 SUBUNIT    0.0742
      6 C6           -0.573400    0.923500   -2.686200 C.2      1 SUBUNIT   -0.0059
      7 C7            0.673600    1.126500   -1.885100 C.2      1 SUBUNIT   -0.0267
      8 C8            0.906000    0.260000   -0.507400 C.3      1 SUBUNIT    0.0850
      9 C9            0.136900   -1.105400   -0.725300 C.3      1 SUBUNIT    0.1834
     10 C10          -0.810500    1.698900   -3.915900 C.2      1 SUBUNIT    0.0078
     11 C11           0.153800    2.677000   -4.363500 C.2      1 SUBUNIT    0.0007
     12 C12           1.384800    2.874400   -3.584800 C.2      1 SUBUNIT    0.0039
     13 C13           1.653600    2.103000   -2.359400 C.2      1 SUBUNIT   -0.0433
     14 C14           3.038000    2.358500   -1.595700 C.3      1 SUBUNIT    0.0404
     15 C15           3.953000    1.081900   -1.433400 C.3      1 SUBUNIT    0.0404
     16 C16           3.658300    0.349000   -0.048500 C.2      1 SUBUNIT   -0.0437
     17 C17           2.277100   -0.004900    0.376300 C.2      1 SUBUNIT   -0.0337
     18 C18           2.111300   -0.628500    1.709900 C.2      1 SUBUNIT    0.0046
     19 C19           3.268800   -0.927200    2.580100 C.2      1 SUBUNIT    0.0003
     20 C20           4.631600   -0.593700    2.136400 C.2      1 SUBUNIT    0.0003
     21 C21           4.817800    0.046000    0.826700 C.2      1 SUBUNIT    0.0038
     22 C22          -4.372100   -0.754200   -1.928300 C.3      1 SUBUNIT    0.0744
     23 C23          -5.910000   -0.128900   -1.728700 C.3      1 SUBUNIT    0.0149
     24 C24          -7.012500   -1.254700   -1.425500 C.3      1 SUBUNIT    0.0102
     25 C25          -6.414500    0.621000   -3.088300 C.3      1 SUBUNIT    0.0102
     26 O26          -4.439100   -1.662500   -3.118400 O.3      1 SUBUNIT   -0.3893
     27 H27          -3.554800   -2.098800   -3.273500 H        1 SUBUNIT    0.2108
     28 H28          -1.640200   -0.137200   -0.141700 H        1 SUBUNIT    0.2303
@<TRIPOS>BOND
     1    1   22 1
     2    1    2 1
     3    2    3 1
     4    2    6 1
     5    3    4 1
     6    3    9 1
     7    3   28 1
     8    4    5 1
     9    5   22 1
    10    6    7 1
    11    6   10 2
    12    7    8 1
    13    7   13 2
    14    8    9 1
    15    8   17 1
    16   10   11 1
    17   11   12 2
    18   12   13 1
    19   13   14 1
    20   14   15 1
    21   15   16 1
    22   16   17 2
    23   16   21 1
    24   17   18 1
    25   18   19 2
    26   19   20 1
    27   20   21 2
    28   22   23 1
    29   22   26 1
    30   23   24 1
    31   23   25 1
    32   26   27 1
@<SCITEGIC>ATOM_PROPERTY
Formal Charge
SciTegic.value.StringValue
1 0
2 0
3 0
4 0
5 0
6 0
7 0
8 0
9 0
10 0
11 0
12 0
13 0
14 0
15 0
16 0
17 0
18 0
19 0
20 0
21 0
22 0
23 0
24 0
25 0
26 0
27 0
28 0

@<SCITEGIC>ATOM_PROPERTY
pdb_tempFactor
SciTegic.value.DoubleValue
1 0.00
2 0.00
3 0.00
4 0.00
5 0.00
6 0.00
7 0.00
8 0.00
9 0.00
10 0.00
11 0.00
12 0.00
13 0.00
14 0.00
15 0.00
16 0.00
17 0.00
18 0.00
19 0.00
20 0.00
21 0.00
22 0.00
23 0.00
24 0.00
25 0.00
26 0.00
27 0.00
28 0.00

@<SCITEGIC>ATOM_PROPERTY
pdb_occupancy
SciTegic.value.DoubleValue
1 1.00
2 1.00
3 1.00
4 1.00
5 1.00
6 1.00
7 1.00
8 1.00
9 1.00
10 1.00
11 1.00
12 1.00
13 1.00
14 1.00
15 1.00
16 1.00
17 1.00
18 1.00
19 1.00
20 1.00
21 1.00
22 1.00
23 1.00
24 1.00
25 1.00
26 1.00
27 1.00
28 1.00

#	copyright drugdesign.org
#	Creation time:	2024-01-11T11:03:00Z

@<SCITEGIC>ROOT_PROPERTY
Ligand:MaximumNumberOfAtoms
SciTegic.value.IntegerValue
100

@<SCITEGIC>ROOT_PROPERTY
Ligand:HydrogenAtomsCountTowardsMaximum
SciTegic.value.BooleanValue
FALSE

@<TRIPOS>MOLECULE
receptormodel
   17    16     0 0 0
SMALL
USER_CHARGES


@<TRIPOS>ATOM
      1 C1           -2.191600    2.296000    2.424400 C.2      1 SUBUNIT    0.2452
      2 O2           -2.052700    1.552400    1.434000 O.2      1 SUBUNIT   -0.2706
      3 H3           -2.251700    3.431500    2.264900 H        1 SUBUNIT    0.1386
      4 O4           -2.269500    1.800900    3.639100 O.3      1 SUBUNIT   -0.3342
      5 H5           -2.200700    0.848400    3.572200 H        1 SUBUNIT    0.2211
      6 C6            3.723700    6.043000   -0.447200 C.2      1 SUBUNIT    0.0000
      7 C7            3.049300    6.408600   -1.709800 C.2      1 SUBUNIT    0.0000
      8 C8            1.617600    6.112000   -1.905900 C.2      1 SUBUNIT    0.0000
      9 C9            0.860300    5.449900   -0.839600 C.2      1 SUBUNIT    0.0000
     10 C10           1.534600    5.084300    0.422900 C.2      1 SUBUNIT    0.0000
     11 C11           2.966400    5.380800    0.619100 C.2      1 SUBUNIT    0.0000
     12 C12           7.469400    2.338500    4.261300 C.2      1 SUBUNIT    0.0000
     13 C13           7.517000    3.290600    3.154500 C.2      1 SUBUNIT    0.0000
     14 C14           6.281600    3.969900    2.716500 C.2      1 SUBUNIT    0.0000
     15 C15           4.998500    3.697300    3.385100 C.2      1 SUBUNIT    0.0000
     16 C16           4.950800    2.745300    4.491800 C.2      1 SUBUNIT    0.0000
     17 C17           6.186300    2.065800    4.929800 C.2      1 SUBUNIT    0.0000
@<TRIPOS>BOND
     1    1    2 2
     2    1    3 1
     3    1    4 1
     4    4    5 1
     5    6    7 2
     6    6   11 1
     7    7    8 1
     8    8    9 2
     9    9   10 1
    10   10   11 2
    11   12   13 2
    12   12   17 1
    13   13   14 1
    14   14   15 2
    15   15   16 1
    16   16   17 2
@<SCITEGIC>ATOM_PROPERTY
Formal Charge
SciTegic.value.StringValue
1 0
2 0
3 0
4 0
5 0
6 0
7 0
8 0
9 0
10 0
11 0
12 0
13 0
14 0
15 0
16 0
17 0

@<SCITEGIC>ATOM_PROPERTY
pdb_tempFactor
SciTegic.value.DoubleValue
1 0.00
2 0.00
3 0.00
4 0.00
5 0.00
6 0.00
7 0.00
8 0.00
9 0.00
10 0.00
11 0.00
12 0.00
13 0.00
14 0.00
15 0.00
16 0.00
17 0.00

@<SCITEGIC>ATOM_PROPERTY
pdb_occupancy
SciTegic.value.DoubleValue
1 1.00
2 1.00
3 1.00
4 1.00
5 1.00
6 1.00
7 1.00
8 1.00
9 1.00
10 1.00
11 1.00
12 1.00
13 1.00
14 1.00
15 1.00
16 1.00
17 1.00

