#	copyright drugdesign.org
#	Creation time:	2024-01-11T11:02:52Z

@<SCITEGIC>ROOT_PROPERTY
Ligand:MaximumNumberOfAtoms
SciTegic.value.IntegerValue
100

@<SCITEGIC>ROOT_PROPERTY
Ligand:HydrogenAtomsCountTowardsMaximum
SciTegic.value.BooleanValue
FALSE

@<TRIPOS>MOLECULE
CY208243
   22    26     0 0 0
SMALL
USER_CHARGES


@<TRIPOS>ATOM
      1 C1          -19.346300   -9.406400    0.764100 C.2      1 SUBUNIT    0.0020
      2 C2          -20.684000   -9.764100    0.538200 C.2      1 SUBUNIT    0.0207
      3 C3          -21.556999   -8.743800    0.177900 C.2      1 SUBUNIT    0.0264
      4 C4          -21.069401   -7.451800    0.082800 C.2      1 SUBUNIT    0.0008
      5 C5          -19.766899   -7.040500    0.323500 C.2      1 SUBUNIT   -0.0297
      6 C6          -19.547199   -5.540500    0.177200 C.3      1 SUBUNIT    0.0677
      7 C7          -20.384501   -5.027900   -1.039700 C.3      1 SUBUNIT    0.0727
      8 C8          -21.907600   -5.170800   -0.735600 C.3      1 SUBUNIT    0.0569
      9 C9          -22.149099   -6.607600   -0.381600 C.2      1 SUBUNIT   -0.0264
     10 C10         -18.113400   -5.058000    0.210800 C.2      1 SUBUNIT   -0.0344
     11 C11         -17.642401   -4.184900   -0.776300 C.2      1 SUBUNIT   -0.0300
     12 C12         -18.579399   -3.691400   -1.852200 C.3      1 SUBUNIT    0.1199
     13 N13         -19.971800   -3.672400   -1.401100 N.3      1 SUBUNIT   -0.2978
     14 C14         -23.209499   -7.425200   -0.504600 C.2      1 SUBUNIT    0.0612
     15 N15         -22.856701   -8.677700   -0.144700 N.pl3    1 SUBUNIT   -0.2645
     16 C16         -17.260500   -5.393400    1.270600 C.2      1 SUBUNIT    0.0045
     17 C17         -15.940200   -4.940600    1.308700 C.2      1 SUBUNIT    0.0003
     18 C18         -15.460400   -4.117900    0.289100 C.2      1 SUBUNIT    0.0004
     19 C19         -16.317699   -3.733400   -0.743300 C.2      1 SUBUNIT    0.0052
     20 C20         -18.889601   -8.080900    0.656500 C.2      1 SUBUNIT    0.0050
     21 H21         -23.482100   -9.487700   -0.187000 H        1 SUBUNIT    0.1336
     22 C22         -20.812799   -3.068500   -2.430200 C.3      1 SUBUNIT    0.1056
@<TRIPOS>BOND
     1    1   20 2
     2    1    2 1
     3    2    3 2
     4    3    4 1
     5    3   15 1
     6    4    5 2
     7    4    9 1
     8    5   20 1
     9    5    6 1
    10    6    7 1
    11    6   10 1
    12    7    8 1
    13    7   13 1
    14    8    9 1
    15    9   14 2
    16   10   11 1
    17   10   16 2
    18   11   12 1
    19   11   19 2
    20   12   13 1
    21   13   22 1
    22   14   15 1
    23   15   21 1
    24   16   17 1
    25   17   18 2
    26   18   19 1
@<SCITEGIC>ATOM_PROPERTY
Formal Charge
SciTegic.value.StringValue
1 0
2 0
3 0
4 0
5 0
6 0
7 0
8 0
9 0
10 0
11 0
12 0
13 0
14 0
15 0
16 0
17 0
18 0
19 0
20 0
21 0
22 0

@<SCITEGIC>ATOM_PROPERTY
pdb_tempFactor
SciTegic.value.DoubleValue
1 0.00
2 0.00
3 0.00
4 0.00
5 0.00
6 0.00
7 0.00
8 0.00
9 0.00
10 0.00
11 0.00
12 0.00
13 0.00
14 0.00
15 0.00
16 0.00
17 0.00
18 0.00
19 0.00
20 0.00
21 0.00
22 0.00

@<SCITEGIC>ATOM_PROPERTY
pdb_occupancy
SciTegic.value.DoubleValue
1 1.00
2 1.00
3 1.00
4 1.00
5 1.00
6 1.00
7 1.00
8 1.00
9 1.00
10 1.00
11 1.00
12 1.00
13 1.00
14 1.00
15 1.00
16 1.00
17 1.00
18 1.00
19 1.00
20 1.00
21 1.00
22 1.00

#	copyright drugdesign.org
#	Creation time:	2024-01-11T11:02:52Z

@<SCITEGIC>ROOT_PROPERTY
Ligand:MaximumNumberOfAtoms
SciTegic.value.IntegerValue
100

@<SCITEGIC>ROOT_PROPERTY
Ligand:HydrogenAtomsCountTowardsMaximum
SciTegic.value.BooleanValue
FALSE

@<TRIPOS>MOLECULE
dihydrexidine
   23    26     0 0 0
SMALL
USER_CHARGES


@<TRIPOS>ATOM
      1 H1          -20.480801   -3.398200   -2.186600 H        1 SUBUNIT    0.1228
      2 C2          -19.393600   -9.355300    0.768200 C.2      1 SUBUNIT    0.1016
      3 C3          -20.722799   -9.748400    0.553500 C.2      1 SUBUNIT    0.1015
      4 C4          -21.666599   -8.765500    0.239300 C.2      1 SUBUNIT    0.0395
      5 C5          -21.336901   -7.408900    0.149000 C.2      1 SUBUNIT   -0.0413
      6 C6          -20.016600   -7.006100    0.399400 C.2      1 SUBUNIT   -0.0329
      7 C7          -19.702801   -5.521300    0.311000 C.3      1 SUBUNIT    0.0669
      8 C8          -20.410999   -5.040100   -0.973600 C.3      1 SUBUNIT    0.0658
      9 C9          -21.924601   -5.032700   -0.688500 C.3      1 SUBUNIT    0.0245
     10 C10         -22.420000   -6.432500   -0.271400 C.3      1 SUBUNIT    0.0373
     11 C11         -18.259100   -5.072300    0.421200 C.2      1 SUBUNIT   -0.0344
     12 C12         -17.692801   -4.251200   -0.563500 C.2      1 SUBUNIT   -0.0302
     13 C13         -18.531099   -3.781500   -1.728600 C.3      1 SUBUNIT    0.1169
     14 N14         -19.940901   -3.731100   -1.382500 N.3      1 SUBUNIT   -0.3089
     15 C15         -17.494499   -5.386000    1.553500 C.2      1 SUBUNIT    0.0046
     16 C16         -16.168900   -4.962400    1.671300 C.2      1 SUBUNIT    0.0003
     17 C17         -15.594900   -4.191000    0.659600 C.2      1 SUBUNIT    0.0004
     18 C18         -16.363100   -3.828700   -0.448700 C.2      1 SUBUNIT    0.0052
     19 C19         -19.068399   -7.995900    0.680200 C.2      1 SUBUNIT    0.0402
     20 O20         -18.449800  -10.300700    1.053700 O.3      1 SUBUNIT   -0.3582
     21 O21         -21.080099  -11.064700    0.631300 O.3      1 SUBUNIT   -0.3582
     22 H22         -20.297400  -11.602500    0.853000 H        1 SUBUNIT    0.2183
     23 H23         -17.572500   -9.897200    1.187000 H        1 SUBUNIT    0.2183
@<TRIPOS>BOND
     1    1   14 1
     2    2   19 2
     3    2    3 1
     4    2   20 1
     5    3    4 2
     6    3   21 1
     7    4    5 1
     8    5    6 2
     9    5   10 1
    10    6   19 1
    11    6    7 1
    12    7    8 1
    13    7   11 1
    14    8    9 1
    15    8   14 1
    16    9   10 1
    17   11   12 1
    18   11   15 2
    19   12   13 1
    20   12   18 2
    21   13   14 1
    22   15   16 1
    23   16   17 2
    24   17   18 1
    25   20   23 1
    26   21   22 1
@<SCITEGIC>ATOM_PROPERTY
Formal Charge
SciTegic.value.StringValue
1 0
2 0
3 0
4 0
5 0
6 0
7 0
8 0
9 0
10 0
11 0
12 0
13 0
14 0
15 0
16 0
17 0
18 0
19 0
20 0
21 0
22 0
23 0

@<SCITEGIC>ATOM_PROPERTY
pdb_tempFactor
SciTegic.value.DoubleValue
1 0.00
2 0.00
3 0.00
4 0.00
5 0.00
6 0.00
7 0.00
8 0.00
9 0.00
10 0.00
11 0.00
12 0.00
13 0.00
14 0.00
15 0.00
16 0.00
17 0.00
18 0.00
19 0.00
20 0.00
21 0.00
22 0.00
23 0.00

@<SCITEGIC>ATOM_PROPERTY
pdb_occupancy
SciTegic.value.DoubleValue
1 1.00
2 1.00
3 1.00
4 1.00
5 1.00
6 1.00
7 1.00
8 1.00
9 1.00
10 1.00
11 1.00
12 1.00
13 1.00
14 1.00
15 1.00
16 1.00
17 1.00
18 1.00
19 1.00
20 1.00
21 1.00
22 1.00
23 1.00

#	copyright drugdesign.org
#	Creation time:	2024-01-11T11:02:52Z

@<SCITEGIC>ROOT_PROPERTY
Ligand:MaximumNumberOfAtoms
SciTegic.value.IntegerValue
100

@<SCITEGIC>ROOT_PROPERTY
Ligand:HydrogenAtomsCountTowardsMaximum
SciTegic.value.BooleanValue
FALSE

@<TRIPOS>MOLECULE
apomorphine
   22    25     0 0 0
SMALL
USER_CHARGES


@<TRIPOS>ATOM
      1 C1          -22.086901   -7.954900    0.102100 C.2      1 SUBUNIT    0.0042
      2 C2          -20.900499   -7.212200    0.132400 C.2      1 SUBUNIT   -0.0382
      3 C3          -19.679399   -7.843700    0.404400 C.2      1 SUBUNIT   -0.0147
      4 C4          -19.669701   -9.226400    0.629000 C.2      1 SUBUNIT    0.0088
      5 C5          -20.853399   -9.968000    0.593700 C.2      1 SUBUNIT    0.0007
      6 C6          -20.917299   -5.721300   -0.119700 C.3      1 SUBUNIT    0.0598
      7 C7          -19.687401   -5.303600   -0.952800 C.3      1 SUBUNIT    0.0916
      8 C8          -18.438400   -5.749200   -0.204600 C.2      1 SUBUNIT   -0.0193
      9 C9          -18.433500   -6.996800    0.440700 C.2      1 SUBUNIT   -0.0130
     10 N10         -19.688200   -3.869200   -1.269600 N.3      1 SUBUNIT   -0.2986
     11 C11         -18.418400   -3.481500   -1.875600 C.3      1 SUBUNIT    0.0893
     12 C12         -17.282700   -3.602500   -0.851300 C.3      1 SUBUNIT    0.0511
     13 C13         -17.290300   -4.947500   -0.174800 C.2      1 SUBUNIT   -0.0413
     14 C14         -17.280500   -7.413900    1.117900 C.2      1 SUBUNIT    0.0089
     15 C15         -16.139099   -6.611300    1.151300 C.2      1 SUBUNIT    0.0009
     16 C16         -16.145599   -5.376700    0.503900 C.2      1 SUBUNIT    0.0039
     17 C17         -20.788799   -3.490500   -2.154500 C.3      1 SUBUNIT    0.1055
     18 C18         -22.067499   -9.331500    0.332700 C.2      1 SUBUNIT    0.0003
     19 O40         -18.370327   -9.920590    0.911359 O.3      1 SUBUNIT    0.0000
     20 O42         -20.819078  -11.447857    0.836284 O.3      1 SUBUNIT    0.0000
     21 H44         -18.536322  -10.897251    1.047359 H        1 SUBUNIT    0.0000
     22 H46         -21.746050  -11.817791    0.774719 H        1 SUBUNIT    0.0000
@<TRIPOS>BOND
     1    1   18 1
     2    1    2 2
     3    2    3 1
     4    2    6 1
     5    3    4 2
     6    3    9 1
     7    4    5 1
     8    5   18 2
     9    6    7 1
    10    7    8 1
    11    7   10 1
    12    8    9 2
    13    8   13 1
    14    9   14 1
    15   10   11 1
    16   10   17 1
    17   11   12 1
    18   12   13 1
    19   13   16 2
    20   14   15 2
    21   15   16 1
    22    4   19 1
    23    5   20 1
    24   19   21 1
    25   20   22 1
@<SCITEGIC>ATOM_PROPERTY
Formal Charge
SciTegic.value.StringValue
1 0
2 0
3 0
4 0
5 0
6 0
7 0
8 0
9 0
10 0
11 0
12 0
13 0
14 0
15 0
16 0
17 0
18 0
19 0
20 0
21 0
22 0

@<SCITEGIC>ATOM_PROPERTY
pdb_tempFactor
SciTegic.value.DoubleValue
1 0.00
2 0.00
3 0.00
4 0.00
5 0.00
6 0.00
7 0.00
8 0.00
9 0.00
10 0.00
11 0.00
12 0.00
13 0.00
14 0.00
15 0.00
16 0.00
17 0.00
18 0.00
19 0.00
20 0.00
21 0.00
22 0.00

@<SCITEGIC>ATOM_PROPERTY
pdb_occupancy
SciTegic.value.DoubleValue
1 1.00
2 1.00
3 1.00
4 1.00
5 1.00
6 1.00
7 1.00
8 1.00
9 1.00
10 1.00
11 1.00
12 1.00
13 1.00
14 1.00
15 1.00
16 1.00
17 1.00
18 1.00
19 1.00
20 1.00
21 1.00
22 1.00

#	copyright drugdesign.org
#	Creation time:	2024-01-11T11:02:52Z

@<SCITEGIC>ROOT_PROPERTY
Ligand:MaximumNumberOfAtoms
SciTegic.value.IntegerValue
100

@<SCITEGIC>ROOT_PROPERTY
Ligand:HydrogenAtomsCountTowardsMaximum
SciTegic.value.BooleanValue
FALSE

@<TRIPOS>MOLECULE
A68930
   24    26     0 0 0
SMALL
USER_CHARGES


@<TRIPOS>ATOM
      1 H1          -20.128401   -3.264500   -2.339800 H        1 SUBUNIT    0.1185
      2 C2          -20.735500   -9.799700    0.549000 C.2      1 SUBUNIT    0.1016
      3 C3          -21.722200   -8.864800    0.223500 C.2      1 SUBUNIT    0.0361
      4 C4          -21.415701   -7.513700    0.072300 C.2      1 SUBUNIT    0.0094
      5 C5          -20.104200   -7.062200    0.244200 C.2      1 SUBUNIT   -0.0119
      6 C6          -19.117599   -7.991000    0.603800 C.2      1 SUBUNIT   -0.0065
      7 C7          -17.715799   -7.481700    0.852900 C.3      1 SUBUNIT    0.0754
      8 C8          -17.713600   -5.972400    1.142600 C.3      1 SUBUNIT    0.1534
      9 O9          -18.377001   -5.321100    0.074300 O.3      1 SUBUNIT   -0.3639
     10 C10         -19.775801   -5.585600    0.071600 C.3      1 SUBUNIT    0.1628
     11 C11         -20.316000   -5.003000   -1.253500 C.3      1 SUBUNIT    0.1144
     12 N12         -19.913900   -3.620000   -1.404700 N.3      1 SUBUNIT   -0.3277
     13 C13         -19.415199   -9.359800    0.740800 C.2      1 SUBUNIT    0.1050
     14 H14         -18.900400   -3.519300   -1.298400 H        1 SUBUNIT    0.1185
     15 O15         -21.051600  -11.122300    0.682900 O.3      1 SUBUNIT   -0.3582
     16 H16         -20.250299  -11.630200    0.907900 H        1 SUBUNIT    0.2183
     17 O17         -18.471001  -10.298500    1.056200 O.3      1 SUBUNIT   -0.3579
     18 H18         -17.563299   -9.949200    1.024100 H        1 SUBUNIT    0.2183
     19 C19         -16.287600   -5.467100    1.294300 C.2      1 SUBUNIT   -0.0189
     20 C20         -15.727400   -5.292700    2.566100 C.2      1 SUBUNIT    0.0062
     21 C21         -14.415700   -4.834300    2.710700 C.2      1 SUBUNIT    0.0004
     22 C22         -13.646800   -4.547100    1.580500 C.2      1 SUBUNIT    0.0000
     23 C23         -14.194400   -4.722700    0.307500 C.2      1 SUBUNIT    0.0004
     24 C24         -15.506500   -5.181400    0.167500 C.2      1 SUBUNIT    0.0062
@<TRIPOS>BOND
     1    1   12 1
     2    2   13 2
     3    2    3 1
     4    2   15 1
     5    3    4 2
     6    4    5 1
     7    5    6 2
     8    5   10 1
     9    6   13 1
    10    6    7 1
    11    7    8 1
    12    8    9 1
    13    8   19 1
    14    9   10 1
    15   10   11 1
    16   11   12 1
    17   12   14 1
    18   13   17 1
    19   15   16 1
    20   17   18 1
    21   19   20 2
    22   19   24 1
    23   20   21 1
    24   21   22 2
    25   22   23 1
    26   23   24 2
@<SCITEGIC>ATOM_PROPERTY
Formal Charge
SciTegic.value.StringValue
1 0
2 0
3 0
4 0
5 0
6 0
7 0
8 0
9 0
10 0
11 0
12 0
13 0
14 0
15 0
16 0
17 0
18 0
19 0
20 0
21 0
22 0
23 0
24 0

@<SCITEGIC>ATOM_PROPERTY
pdb_tempFactor
SciTegic.value.DoubleValue
1 0.00
2 0.00
3 0.00
4 0.00
5 0.00
6 0.00
7 0.00
8 0.00
9 0.00
10 0.00
11 0.00
12 0.00
13 0.00
14 0.00
15 0.00
16 0.00
17 0.00
18 0.00
19 0.00
20 0.00
21 0.00
22 0.00
23 0.00
24 0.00

@<SCITEGIC>ATOM_PROPERTY
pdb_occupancy
SciTegic.value.DoubleValue
1 1.00
2 1.00
3 1.00
4 1.00
5 1.00
6 1.00
7 1.00
8 1.00
9 1.00
10 1.00
11 1.00
12 1.00
13 1.00
14 1.00
15 1.00
16 1.00
17 1.00
18 1.00
19 1.00
20 1.00
21 1.00
22 1.00
23 1.00
24 1.00

#	copyright drugdesign.org
#	Creation time:	2024-01-11T11:02:52Z

@<SCITEGIC>ROOT_PROPERTY
Ligand:MaximumNumberOfAtoms
SciTegic.value.IntegerValue
100

@<SCITEGIC>ROOT_PROPERTY
Ligand:HydrogenAtomsCountTowardsMaximum
SciTegic.value.BooleanValue
FALSE

@<TRIPOS>MOLECULE
abeorphine
   25    28     0 0 0
SMALL
USER_CHARGES


@<TRIPOS>ATOM
      1 H1          -19.918501  -11.587600    1.025100 H        1 SUBUNIT    0.2183
      2 C2          -19.688400   -9.203000    0.618200 C.2      1 SUBUNIT    0.1095
      3 C3          -19.746799   -7.818800    0.371100 C.2      1 SUBUNIT    0.0180
      4 C4          -20.969999   -7.212000    0.025500 C.2      1 SUBUNIT   -0.0354
      5 C5          -22.134600   -7.982700   -0.016500 C.2      1 SUBUNIT    0.0071
      6 C6          -22.080299   -9.344400    0.269300 C.2      1 SUBUNIT    0.0360
      7 O7          -20.832500  -11.310700    0.828700 O.3      1 SUBUNIT   -0.3582
      8 C8          -20.868401   -9.967300    0.580100 C.2      1 SUBUNIT    0.1019
      9 O9          -18.521601   -9.868900    0.866800 O.3      1 SUBUNIT   -0.3576
     10 H10         -17.752600   -9.395900    0.504200 H        1 SUBUNIT    0.2184
     11 C11         -18.545401   -6.908700    0.451400 C.2      1 SUBUNIT   -0.0102
     12 C12         -18.642200   -5.717400   -0.257100 C.2      1 SUBUNIT   -0.0177
     13 C13         -19.812700   -5.295700   -1.077400 C.3      1 SUBUNIT    0.0926
     14 C14         -21.064899   -5.728700   -0.303100 C.3      1 SUBUNIT    0.0599
     15 C15         -17.371099   -7.064100    1.199800 C.2      1 SUBUNIT    0.0090
     16 C16         -16.370800   -6.080400    1.187300 C.2      1 SUBUNIT    0.0010
     17 C17         -16.511299   -4.892800    0.458600 C.2      1 SUBUNIT    0.0055
     18 C18         -17.687300   -4.712700   -0.265100 C.2      1 SUBUNIT   -0.0253
     19 N19         -19.676300   -3.850300   -1.269500 N.3      1 SUBUNIT   -0.2892
     20 C20         -18.240999   -3.561500   -1.078100 C.3      1 SUBUNIT    0.0876
     21 C21         -18.022400   -2.206600   -0.366300 C.3      1 SUBUNIT    0.0236
     22 C22         -16.711399   -1.507300   -0.773900 C.3      1 SUBUNIT   -0.0015
     23 C23         -16.504999   -0.189700   -0.007000 C.3      1 SUBUNIT    0.0038
     24 C24         -20.232000   -3.433900   -2.556400 C.3      1 SUBUNIT    0.0822
     25 C25         -20.192200   -1.920800   -2.826700 C.3      1 SUBUNIT    0.0206
@<TRIPOS>BOND
     1    1    7 1
     2    2    8 2
     3    2    3 1
     4    2    9 1
     5    3    4 2
     6    3   11 1
     7    4    5 1
     8    4   14 1
     9    5    6 2
    10    6    8 1
    11    7    8 1
    12    9   10 1
    13   11   12 1
    14   11   15 2
    15   12   13 1
    16   12   18 2
    17   13   14 1
    18   13   19 1
    19   15   16 1
    20   16   17 2
    21   17   18 1
    22   18   20 1
    23   19   20 1
    24   19   24 1
    25   20   21 1
    26   21   22 1
    27   22   23 1
    28   24   25 1
@<SCITEGIC>ATOM_PROPERTY
Formal Charge
SciTegic.value.StringValue
1 0
2 0
3 0
4 0
5 0
6 0
7 0
8 0
9 0
10 0
11 0
12 0
13 0
14 0
15 0
16 0
17 0
18 0
19 0
20 0
21 0
22 0
23 0
24 0
25 0

@<SCITEGIC>ATOM_PROPERTY
pdb_tempFactor
SciTegic.value.DoubleValue
1 0.00
2 0.00
3 0.00
4 0.00
5 0.00
6 0.00
7 0.00
8 0.00
9 0.00
10 0.00
11 0.00
12 0.00
13 0.00
14 0.00
15 0.00
16 0.00
17 0.00
18 0.00
19 0.00
20 0.00
21 0.00
22 0.00
23 0.00
24 0.00
25 0.00

@<SCITEGIC>ATOM_PROPERTY
pdb_occupancy
SciTegic.value.DoubleValue
1 1.00
2 1.00
3 1.00
4 1.00
5 1.00
6 1.00
7 1.00
8 1.00
9 1.00
10 1.00
11 1.00
12 1.00
13 1.00
14 1.00
15 1.00
16 1.00
17 1.00
18 1.00
19 1.00
20 1.00
21 1.00
22 1.00
23 1.00
24 1.00
25 1.00

#	copyright drugdesign.org
#	Creation time:	2024-01-11T11:02:52Z

@<SCITEGIC>ROOT_PROPERTY
Ligand:MaximumNumberOfAtoms
SciTegic.value.IntegerValue
100

@<SCITEGIC>ROOT_PROPERTY
Ligand:HydrogenAtomsCountTowardsMaximum
SciTegic.value.BooleanValue
FALSE

@<TRIPOS>MOLECULE
SKF89626
   20    22     0 0 0
SMALL
USER_CHARGES


@<TRIPOS>ATOM
      1 H1          -17.594000   -9.774600    1.129400 H        1 SUBUNIT    0.2183
      2 C2          -19.449699   -9.342100    0.741700 C.2      1 SUBUNIT    0.1016
      3 C3          -20.761700   -9.812400    0.566000 C.2      1 SUBUNIT    0.1013
      4 C4          -21.774500   -8.891900    0.273700 C.2      1 SUBUNIT    0.0360
      5 C5          -21.509199   -7.527300    0.155600 C.2      1 SUBUNIT    0.0071
      6 C6          -20.207899   -7.048000    0.331700 C.2      1 SUBUNIT   -0.0364
      7 O7          -18.450300  -10.228600    1.025400 O.3      1 SUBUNIT   -0.3582
      8 C8          -19.196699   -7.969600    0.620400 C.2      1 SUBUNIT    0.0399
      9 O9          -21.040800  -11.144900    0.677700 O.3      1 SUBUNIT   -0.3582
     10 H10         -20.222700  -11.633200    0.885400 H        1 SUBUNIT    0.2183
     11 C11         -19.906900   -5.567700    0.204100 C.3      1 SUBUNIT    0.0640
     12 C12         -20.854300   -4.729700    1.022600 C.2      1 SUBUNIT   -0.0275
     13 C13         -21.367001   -3.577600    0.561900 C.2      1 SUBUNIT    0.0069
     14 C14         -21.059900   -3.037100   -0.808300 C.3      1 SUBUNIT    0.1240
     15 N15         -19.884701   -3.672100   -1.386400 N.3      1 SUBUNIT   -0.3112
     16 C16         -19.946501   -5.120400   -1.272300 C.3      1 SUBUNIT    0.0940
     17 S17         -22.415199   -2.839300    1.715800 S.3      1 SUBUNIT   -0.1008
     18 C18         -22.116301   -4.080700    2.873700 C.2      1 SUBUNIT    0.0459
     19 C19         -21.283600   -5.019100    2.396700 C.2      1 SUBUNIT    0.0123
     20 H41         -19.825712   -3.425357   -2.353684 H        1 SUBUNIT    0.0000
@<TRIPOS>BOND
     1    1    7 1
     2    2    8 2
     3    2    3 1
     4    2    7 1
     5    3    4 2
     6    3    9 1
     7    4    5 1
     8    5    6 2
     9    6    8 1
    10    6   11 1
    11    9   10 1
    12   11   12 1
    13   11   16 1
    14   12   13 2
    15   12   19 1
    16   13   14 1
    17   13   17 1
    18   14   15 1
    19   15   16 1
    20   17   18 1
    21   18   19 2
    22   15   20 1
@<SCITEGIC>ATOM_PROPERTY
Formal Charge
SciTegic.value.StringValue
1 0
2 0
3 0
4 0
5 0
6 0
7 0
8 0
9 0
10 0
11 0
12 0
13 0
14 0
15 0
16 0
17 0
18 0
19 0
20 0

@<SCITEGIC>ATOM_PROPERTY
pdb_tempFactor
SciTegic.value.DoubleValue
1 0.00
2 0.00
3 0.00
4 0.00
5 0.00
6 0.00
7 0.00
8 0.00
9 0.00
10 0.00
11 0.00
12 0.00
13 0.00
14 0.00
15 0.00
16 0.00
17 0.00
18 0.00
19 0.00
20 0.00

@<SCITEGIC>ATOM_PROPERTY
pdb_occupancy
SciTegic.value.DoubleValue
1 1.00
2 1.00
3 1.00
4 1.00
5 1.00
6 1.00
7 1.00
8 1.00
9 1.00
10 1.00
11 1.00
12 1.00
13 1.00
14 1.00
15 1.00
16 1.00
17 1.00
18 1.00
19 1.00
20 1.00

#	copyright drugdesign.org
#	Creation time:	2024-01-11T11:02:52Z

@<SCITEGIC>ROOT_PROPERTY
Ligand:MaximumNumberOfAtoms
SciTegic.value.IntegerValue
100

@<SCITEGIC>ROOT_PROPERTY
Ligand:HydrogenAtomsCountTowardsMaximum
SciTegic.value.BooleanValue
FALSE

@<TRIPOS>MOLECULE
fenoldopam
   25    27     0 0 0
SMALL
USER_CHARGES


@<TRIPOS>ATOM
      1 Cl1         -23.048401   -8.639100   -0.189400 Cl       1 SUBUNIT   -0.0810
      2 C2          -19.249300   -9.322500    0.816500 C.2      1 SUBUNIT    0.1031
      3 C3          -20.604799   -9.483400    0.499600 C.2      1 SUBUNIT    0.1205
      4 C4          -21.383200   -8.355400    0.212800 C.2      1 SUBUNIT    0.0768
      5 C5          -20.835699   -7.060500    0.240800 C.2      1 SUBUNIT   -0.0213
      6 C6          -19.476299   -6.892100    0.548800 C.2      1 SUBUNIT   -0.0317
      7 C7          -18.851101   -5.502800    0.557600 C.3      1 SUBUNIT    0.0636
      8 C8          -18.847601   -4.873100   -0.854100 C.3      1 SUBUNIT    0.0969
      9 N9          -20.101299   -4.239500   -1.259500 N.3      1 SUBUNIT   -0.3050
     10 C10         -21.225599   -5.162500   -1.390700 C.3      1 SUBUNIT    0.0888
     11 C11         -21.661301   -5.826300   -0.071800 C.3      1 SUBUNIT    0.0528
     12 C12         -17.465500   -5.494700    1.195400 C.2      1 SUBUNIT   -0.0390
     13 C13         -16.302700   -5.748300    0.456300 C.2      1 SUBUNIT    0.0069
     14 C14         -15.046200   -5.741500    1.067600 C.2      1 SUBUNIT    0.0332
     15 C15         -14.895700   -5.485900    2.437500 C.2      1 SUBUNIT    0.0713
     16 C16         -16.063499   -5.239800    3.170700 C.2      1 SUBUNIT    0.0332
     17 C17         -17.323299   -5.244200    2.567000 C.2      1 SUBUNIT    0.0069
     18 C18         -18.713600   -8.031500    0.830300 C.2      1 SUBUNIT    0.0403
     19 O19         -21.146000  -10.734200    0.471800 O.3      1 SUBUNIT   -0.3570
     20 H20         -20.468201  -11.397800    0.699100 H        1 SUBUNIT    0.2184
     21 O21         -18.485901  -10.420400    1.095900 O.3      1 SUBUNIT   -0.3581
     22 H22         -17.568100  -10.173400    1.313200 H        1 SUBUNIT    0.2183
     23 C23         -19.908199   -3.513500   -2.515800 C.3      1 SUBUNIT    0.1049
     24 O24         -13.671100   -5.479300    3.043000 O.3      1 SUBUNIT   -0.3609
     25 H25         -12.964000   -5.652400    2.394800 H        1 SUBUNIT    0.2182
@<TRIPOS>BOND
     1    1    4 1
     2    2   18 2
     3    2    3 1
     4    2   21 1
     5    3    4 2
     6    3   19 1
     7    4    5 1
     8    5    6 2
     9    5   11 1
    10    6   18 1
    11    6    7 1
    12    7    8 1
    13    7   12 1
    14    8    9 1
    15    9   10 1
    16    9   23 1
    17   10   11 1
    18   12   13 2
    19   12   17 1
    20   13   14 1
    21   14   15 2
    22   15   16 1
    23   15   24 1
    24   16   17 2
    25   19   20 1
    26   21   22 1
    27   24   25 1
@<SCITEGIC>ATOM_PROPERTY
Formal Charge
SciTegic.value.StringValue
1 0
2 0
3 0
4 0
5 0
6 0
7 0
8 0
9 0
10 0
11 0
12 0
13 0
14 0
15 0
16 0
17 0
18 0
19 0
20 0
21 0
22 0
23 0
24 0
25 0

@<SCITEGIC>ATOM_PROPERTY
pdb_tempFactor
SciTegic.value.DoubleValue
1 0.00
2 0.00
3 0.00
4 0.00
5 0.00
6 0.00
7 0.00
8 0.00
9 0.00
10 0.00
11 0.00
12 0.00
13 0.00
14 0.00
15 0.00
16 0.00
17 0.00
18 0.00
19 0.00
20 0.00
21 0.00
22 0.00
23 0.00
24 0.00
25 0.00

@<SCITEGIC>ATOM_PROPERTY
pdb_occupancy
SciTegic.value.DoubleValue
1 1.00
2 1.00
3 1.00
4 1.00
5 1.00
6 1.00
7 1.00
8 1.00
9 1.00
10 1.00
11 1.00
12 1.00
13 1.00
14 1.00
15 1.00
16 1.00
17 1.00
18 1.00
19 1.00
20 1.00
21 1.00
22 1.00
23 1.00
24 1.00
25 1.00

#	copyright drugdesign.org
#	Creation time:	2024-01-11T11:02:52Z

@<SCITEGIC>ROOT_PROPERTY
Ligand:MaximumNumberOfAtoms
SciTegic.value.IntegerValue
100

@<SCITEGIC>ROOT_PROPERTY
Ligand:HydrogenAtomsCountTowardsMaximum
SciTegic.value.BooleanValue
FALSE

@<TRIPOS>MOLECULE
SKF75670
   22    24     0 0 0
SMALL
USER_CHARGES


@<TRIPOS>ATOM
      1 O1          -18.482201  -10.427500    1.104900 O.3      1 SUBUNIT   -0.3582
      2 C2          -19.237700   -9.327400    0.814100 C.2      1 SUBUNIT    0.1016
      3 C3          -20.593901   -9.484500    0.494700 C.2      1 SUBUNIT    0.1015
      4 C4          -21.345400   -8.342800    0.200200 C.2      1 SUBUNIT    0.0396
      5 C5          -20.795300   -7.056200    0.214900 C.2      1 SUBUNIT   -0.0401
      6 C6          -19.441299   -6.890600    0.530600 C.2      1 SUBUNIT   -0.0332
      7 C7          -18.692801   -8.037500    0.823800 C.2      1 SUBUNIT    0.0402
      8 O8          -21.164000  -10.725800    0.471400 O.3      1 SUBUNIT   -0.3582
      9 C9          -18.832800   -5.497200    0.540100 C.3      1 SUBUNIT    0.0636
     10 C10         -18.845800   -4.856500   -0.866300 C.3      1 SUBUNIT    0.0969
     11 N11         -20.109400   -4.234800   -1.260900 N.3      1 SUBUNIT   -0.3051
     12 C12         -21.218000   -5.172800   -1.421000 C.3      1 SUBUNIT    0.0887
     13 C13         -21.665199   -5.866700   -0.122400 C.3      1 SUBUNIT    0.0512
     14 C14         -17.443199   -5.479800    1.168100 C.2      1 SUBUNIT   -0.0392
     15 C15         -16.291599   -5.756300    0.417500 C.2      1 SUBUNIT    0.0042
     16 C16         -15.026500   -5.742400    1.010800 C.2      1 SUBUNIT    0.0003
     17 C17         -14.893400   -5.452600    2.371000 C.2      1 SUBUNIT    0.0000
     18 C18         -16.032000   -5.180700    3.132800 C.2      1 SUBUNIT    0.0003
     19 C19         -17.294300   -5.196300    2.533800 C.2      1 SUBUNIT    0.0042
     20 C20         -19.922899   -3.478000   -2.500000 C.3      1 SUBUNIT    0.1049
     21 H21         -17.562500  -10.181400    1.313900 H        1 SUBUNIT    0.2183
     22 H22         -20.495199  -11.396700    0.702600 H        1 SUBUNIT    0.2183
@<TRIPOS>BOND
     1    1   21 1
     2    1    2 1
     3    2    7 1
     4    2    3 2
     5    3    4 1
     6    3    8 1
     7    4    5 2
     8    5    6 1
     9    5   13 1
    10    6    9 1
    11    6    7 2
    12    8   22 1
    13    9   10 1
    14    9   14 1
    15   10   11 1
    16   11   12 1
    17   11   20 1
    18   12   13 1
    19   14   15 1
    20   14   19 2
    21   15   16 2
    22   16   17 1
    23   17   18 2
    24   18   19 1
@<SCITEGIC>ATOM_PROPERTY
Formal Charge
SciTegic.value.StringValue
1 0
2 0
3 0
4 0
5 0
6 0
7 0
8 0
9 0
10 0
11 0
12 0
13 0
14 0
15 0
16 0
17 0
18 0
19 0
20 0
21 0
22 0

@<SCITEGIC>ATOM_PROPERTY
pdb_tempFactor
SciTegic.value.DoubleValue
1 0.00
2 0.00
3 0.00
4 0.00
5 0.00
6 0.00
7 0.00
8 0.00
9 0.00
10 0.00
11 0.00
12 0.00
13 0.00
14 0.00
15 0.00
16 0.00
17 0.00
18 0.00
19 0.00
20 0.00
21 0.00
22 0.00

@<SCITEGIC>ATOM_PROPERTY
pdb_occupancy
SciTegic.value.DoubleValue
1 1.00
2 1.00
3 1.00
4 1.00
5 1.00
6 1.00
7 1.00
8 1.00
9 1.00
10 1.00
11 1.00
12 1.00
13 1.00
14 1.00
15 1.00
16 1.00
17 1.00
18 1.00
19 1.00
20 1.00
21 1.00
22 1.00

#	copyright drugdesign.org
#	Creation time:	2024-01-11T11:02:52Z

@<SCITEGIC>ROOT_PROPERTY
Ligand:MaximumNumberOfAtoms
SciTegic.value.IntegerValue
100

@<SCITEGIC>ROOT_PROPERTY
Ligand:HydrogenAtomsCountTowardsMaximum
SciTegic.value.BooleanValue
FALSE

@<TRIPOS>MOLECULE
dopamine
   15    15     0 0 0
SMALL
USER_CHARGES


@<TRIPOS>ATOM
      1 C1          -20.470800   -7.060100    0.367500 C.2      1 SUBUNIT   -0.0440
      2 C2          -21.738600   -7.631100    0.232200 C.2      1 SUBUNIT    0.0064
      3 C3          -21.896000   -9.012800    0.345500 C.2      1 SUBUNIT    0.0360
      4 C4          -20.806900   -9.856900    0.591700 C.2      1 SUBUNIT    0.1013
      5 C5          -19.527800   -9.291900    0.724900 C.2      1 SUBUNIT    0.1015
      6 C6          -19.382500   -7.903500    0.609200 C.2      1 SUBUNIT    0.0393
      7 C7          -20.279800   -5.563800    0.239700 C.3      1 SUBUNIT    0.0504
      8 C8          -19.992599   -5.171300   -1.220500 C.3      1 SUBUNIT    0.0821
      9 N9          -19.815399   -3.740500   -1.353400 N.3      1 SUBUNIT   -0.3301
     10 H10         -19.611300   -3.478300   -2.321500 H        1 SUBUNIT    0.1184
     11 H11         -19.016399   -3.407600   -0.807900 H        1 SUBUNIT    0.1184
     12 O12         -20.981800  -11.207400    0.698800 O.3      1 SUBUNIT   -0.3582
     13 H13         -20.122601  -11.635600    0.869600 H        1 SUBUNIT    0.2183
     14 O14         -18.455299  -10.103500    0.962200 O.3      1 SUBUNIT   -0.3582
     15 H15         -17.631800   -9.587900    1.037600 H        1 SUBUNIT    0.2183
@<TRIPOS>BOND
     1    1    2 2
     2    1    6 1
     3    1    7 1
     4    2    3 1
     5    3    4 2
     6    4    5 1
     7    4   12 1
     8    5    6 2
     9    5   14 1
    10    7    8 1
    11    8    9 1
    12    9   10 1
    13    9   11 1
    14   12   13 1
    15   14   15 1
@<SCITEGIC>ATOM_PROPERTY
Formal Charge
SciTegic.value.StringValue
1 0
2 0
3 0
4 0
5 0
6 0
7 0
8 0
9 0
10 0
11 0
12 0
13 0
14 0
15 0

@<SCITEGIC>ATOM_PROPERTY
pdb_tempFactor
SciTegic.value.DoubleValue
1 0.00
2 0.00
3 0.00
4 0.00
5 0.00
6 0.00
7 0.00
8 0.00
9 0.00
10 0.00
11 0.00
12 0.00
13 0.00
14 0.00
15 0.00

@<SCITEGIC>ATOM_PROPERTY
pdb_occupancy
SciTegic.value.DoubleValue
1 1.00
2 1.00
3 1.00
4 1.00
5 1.00
6 1.00
7 1.00
8 1.00
9 1.00
10 1.00
11 1.00
12 1.00
13 1.00
14 1.00
15 1.00

#	copyright drugdesign.org
#	Creation time:	2024-01-11T11:02:52Z

@<SCITEGIC>ROOT_PROPERTY
Ligand:MaximumNumberOfAtoms
SciTegic.value.IntegerValue
100

@<SCITEGIC>ROOT_PROPERTY
Ligand:HydrogenAtomsCountTowardsMaximum
SciTegic.value.BooleanValue
FALSE

@<TRIPOS>MOLECULE
pharmaco
    9     6     0 0 0
SMALL
USER_CHARGES


@<TRIPOS>ATOM
      1 C2          -19.393600   -9.355300    0.768200 C.2      1 SUBUNIT    0.1016
      2 C3          -20.722799   -9.748400    0.553500 C.2      1 SUBUNIT    0.1015
      3 C4          -21.666599   -8.765500    0.239300 C.2      1 SUBUNIT    0.0395
      4 C5          -21.336901   -7.408900    0.149000 C.2      1 SUBUNIT   -0.0413
      5 C6          -20.016600   -7.006100    0.399400 C.2      1 SUBUNIT   -0.0329
      6 N14         -19.940901   -3.731100   -1.382500 N.3      1 SUBUNIT   -0.3089
      7 C19         -19.068399   -7.995900    0.680200 C.2      1 SUBUNIT    0.0402
      8 O20         -18.449800  -10.300700    1.053700 O.3      1 SUBUNIT   -0.3582
      9 O21         -21.080099  -11.064700    0.631300 O.3      1 SUBUNIT   -0.3582
@<TRIPOS>BOND
     1    1    7 2
     2    1    2 1
     3    2    3 2
     4    3    4 1
     5    4    5 2
     6    5    7 1
@<SCITEGIC>ATOM_PROPERTY
Formal Charge
SciTegic.value.StringValue
1 0
2 0
3 0
4 0
5 0
6 0
7 0
8 0
9 0

@<SCITEGIC>ATOM_PROPERTY
pdb_tempFactor
SciTegic.value.DoubleValue
1 0.00
2 0.00
3 0.00
4 0.00
5 0.00
6 0.00
7 0.00
8 0.00
9 0.00

@<SCITEGIC>ATOM_PROPERTY
pdb_occupancy
SciTegic.value.DoubleValue
1 1.00
2 1.00
3 1.00
4 1.00
5 1.00
6 1.00
7 1.00
8 1.00
9 1.00

