#	copyright drugdesign.org
#	Creation time:	2024-01-11T11:02:51Z

@<SCITEGIC>ROOT_PROPERTY
Ligand:MaximumNumberOfAtoms
SciTegic.value.IntegerValue
100

@<SCITEGIC>ROOT_PROPERTY
Ligand:HydrogenAtomsCountTowardsMaximum
SciTegic.value.BooleanValue
FALSE

@<TRIPOS>MOLECULE
dopamine
   15    15     0 0 0
SMALL
USER_CHARGES


@<TRIPOS>ATOM
      1 C1          -18.001656   10.943367   -0.377393 C.2      1 SUBUNIT   -0.0440
      2 C2          -18.204397    9.570170   -0.219658 C.2      1 SUBUNIT    0.0064
      3 C3          -19.501175    9.056056   -0.192379 C.2      1 SUBUNIT    0.0360
      4 C4          -20.621473    9.885833   -0.317586 C.2      1 SUBUNIT    0.1013
      5 C5          -20.427214   11.268362   -0.472277 C.2      1 SUBUNIT    0.1015
      6 C6          -19.120586   11.772563   -0.498210 C.2      1 SUBUNIT    0.0393
      7 C7          -16.602116   11.519950   -0.401261 C.3      1 SUBUNIT    0.0504
      8 C8          -16.142118   11.899509    1.017563 C.3      1 SUBUNIT    0.0821
      9 N9          -14.801274   12.445595    1.005213 N.3      1 SUBUNIT   -0.3301
     10 H10         -14.497961   12.710963    1.946068 H        1 SUBUNIT    0.1184
     11 H11         -14.749270   13.304114    0.451103 H        1 SUBUNIT    0.1184
     12 O12         -21.883089    9.363012   -0.287913 O.3      1 SUBUNIT   -0.3582
     13 H13         -22.536306   10.079950   -0.388241 H        1 SUBUNIT    0.2183
     14 O14         -21.511040   12.090644   -0.592507 O.3      1 SUBUNIT   -0.3582
     15 H15         -21.239180   13.020541   -0.697678 H        1 SUBUNIT    0.2183
@<TRIPOS>BOND
     1    1    2 2
     2    1    6 1
     3    1    7 1
     4    2    3 1
     5    3    4 2
     6    4    5 1
     7    4   12 1
     8    5    6 2
     9    5   14 1
    10    7    8 1
    11    8    9 1
    12    9   10 1
    13    9   11 1
    14   12   13 1
    15   14   15 1
@<SCITEGIC>ATOM_PROPERTY
Formal Charge
SciTegic.value.StringValue
1 0
2 0
3 0
4 0
5 0
6 0
7 0
8 0
9 0
10 0
11 0
12 0
13 0
14 0
15 0

@<SCITEGIC>ATOM_PROPERTY
pdb_tempFactor
SciTegic.value.DoubleValue
1 0.00
2 0.00
3 0.00
4 0.00
5 0.00
6 0.00
7 0.00
8 0.00
9 0.00
10 0.00
11 0.00
12 0.00
13 0.00
14 0.00
15 0.00

@<SCITEGIC>ATOM_PROPERTY
pdb_occupancy
SciTegic.value.DoubleValue
1 1.00
2 1.00
3 1.00
4 1.00
5 1.00
6 1.00
7 1.00
8 1.00
9 1.00
10 1.00
11 1.00
12 1.00
13 1.00
14 1.00
15 1.00

#	copyright drugdesign.org
#	Creation time:	2024-01-11T11:02:51Z

@<SCITEGIC>ROOT_PROPERTY
Ligand:MaximumNumberOfAtoms
SciTegic.value.IntegerValue
100

@<SCITEGIC>ROOT_PROPERTY
Ligand:HydrogenAtomsCountTowardsMaximum
SciTegic.value.BooleanValue
FALSE

@<TRIPOS>MOLECULE
SKF75670
   22    24     0 0 0
SMALL
USER_CHARGES


@<TRIPOS>ATOM
      1 O1          -11.063729   12.363440    0.458810 O.3      1 SUBUNIT   -0.3582
      2 C2           -9.836504   11.796188    0.264630 C.2      1 SUBUNIT    0.1016
      3 C3           -9.701547   10.401906    0.325744 C.2      1 SUBUNIT    0.1015
      4 C4           -8.434588    9.845900    0.124163 C.2      1 SUBUNIT    0.0396
      5 C5           -7.303503   10.627344   -0.136907 C.2      1 SUBUNIT   -0.0401
      6 C6           -7.429013   12.020539   -0.197399 C.2      1 SUBUNIT   -0.0332
      7 C7           -8.700052   12.572438    0.006237 C.2      1 SUBUNIT    0.0402
      8 O8          -10.784647    9.608397    0.577968 O.3      1 SUBUNIT   -0.3582
      9 C9           -6.203751   12.878178   -0.471476 C.3      1 SUBUNIT    0.0636
     10 C10          -5.160356   12.766271    0.663173 C.3      1 SUBUNIT    0.0969
     11 N11          -4.282047   11.598865    0.595005 N.3      1 SUBUNIT   -0.3051
     12 C12          -4.964571   10.320139    0.778010 C.3      1 SUBUNIT    0.0887
     13 C13          -5.962258    9.959040   -0.336475 C.3      1 SUBUNIT    0.0512
     14 C14          -6.570939   14.326779   -0.775449 C.2      1 SUBUNIT   -0.0392
     15 C15          -6.751935   15.271040    0.245164 C.2      1 SUBUNIT    0.0042
     16 C16          -7.094783   16.592886   -0.051232 C.2      1 SUBUNIT    0.0003
     17 C17          -7.264938   16.991917   -1.379262 C.2      1 SUBUNIT    0.0000
     18 C18          -7.093523   16.061136   -2.406366 C.2      1 SUBUNIT    0.0003
     19 C19          -6.750865   14.740784   -2.103570 C.2      1 SUBUNIT    0.0042
     20 C20          -3.208624   11.728845    1.581802 C.3      1 SUBUNIT    0.1049
     21 H21         -11.021628   13.334474    0.385243 H        1 SUBUNIT    0.2183
     22 H22         -11.577960   10.164386    0.689243 H        1 SUBUNIT    0.2183
@<TRIPOS>BOND
     1    1   21 1
     2    1    2 1
     3    2    7 1
     4    2    3 2
     5    3    4 1
     6    3    8 1
     7    4    5 2
     8    5    6 1
     9    5   13 1
    10    6    9 1
    11    6    7 2
    12    8   22 1
    13    9   10 1
    14    9   14 1
    15   10   11 1
    16   11   12 1
    17   11   20 1
    18   12   13 1
    19   14   15 1
    20   14   19 2
    21   15   16 2
    22   16   17 1
    23   17   18 2
    24   18   19 1
@<SCITEGIC>ATOM_PROPERTY
Formal Charge
SciTegic.value.StringValue
1 0
2 0
3 0
4 0
5 0
6 0
7 0
8 0
9 0
10 0
11 0
12 0
13 0
14 0
15 0
16 0
17 0
18 0
19 0
20 0
21 0
22 0

@<SCITEGIC>ATOM_PROPERTY
pdb_tempFactor
SciTegic.value.DoubleValue
1 0.00
2 0.00
3 0.00
4 0.00
5 0.00
6 0.00
7 0.00
8 0.00
9 0.00
10 0.00
11 0.00
12 0.00
13 0.00
14 0.00
15 0.00
16 0.00
17 0.00
18 0.00
19 0.00
20 0.00
21 0.00
22 0.00

@<SCITEGIC>ATOM_PROPERTY
pdb_occupancy
SciTegic.value.DoubleValue
1 1.00
2 1.00
3 1.00
4 1.00
5 1.00
6 1.00
7 1.00
8 1.00
9 1.00
10 1.00
11 1.00
12 1.00
13 1.00
14 1.00
15 1.00
16 1.00
17 1.00
18 1.00
19 1.00
20 1.00
21 1.00
22 1.00

#	copyright drugdesign.org
#	Creation time:	2024-01-11T11:02:51Z

@<SCITEGIC>ROOT_PROPERTY
Ligand:MaximumNumberOfAtoms
SciTegic.value.IntegerValue
100

@<SCITEGIC>ROOT_PROPERTY
Ligand:HydrogenAtomsCountTowardsMaximum
SciTegic.value.BooleanValue
FALSE

@<TRIPOS>MOLECULE
fenoldopam
   25    27     0 0 0
SMALL
USER_CHARGES


@<TRIPOS>ATOM
      1 Cl1          -3.166954   -1.496911   -0.147168 Cl       1 SUBUNIT   -0.0810
      2 C2           -4.610499    2.164939    0.500195 C.2      1 SUBUNIT    0.1031
      3 C3           -4.496283    0.790506    0.252045 C.2      1 SUBUNIT    0.1205
      4 C4           -3.224913    0.214382    0.141389 C.2      1 SUBUNIT    0.0768
      5 C5           -2.056602    0.986512    0.268562 C.2      1 SUBUNIT   -0.0213
      6 C6           -2.162988    2.362587    0.526022 C.2      1 SUBUNIT   -0.0317
      7 C7           -0.913138    3.216817    0.697099 C.3      1 SUBUNIT    0.0636
      8 C8           -0.114000    2.807713    1.955448 C.3      1 SUBUNIT    0.0969
      9 N9            0.770583    1.655806    1.787559 N.3      1 SUBUNIT   -0.3050
     10 C10           0.076878    0.402460    1.502805 C.3      1 SUBUNIT    0.0888
     11 C11          -0.670114    0.380067    0.156899 C.3      1 SUBUNIT    0.0528
     12 C12          -1.223688    4.710032    0.672162 C.2      1 SUBUNIT   -0.0390
     13 C13          -1.571974    5.418854    1.829295 C.2      1 SUBUNIT    0.0069
     14 C14          -1.858428    6.785491    1.776626 C.2      1 SUBUNIT    0.0332
     15 C15          -1.813469    7.500896    0.572140 C.2      1 SUBUNIT    0.0713
     16 C16          -1.470890    6.783748   -0.581222 C.2      1 SUBUNIT    0.0332
     17 C17          -1.182526    5.417567   -0.536952 C.2      1 SUBUNIT    0.0069
     18 C18          -3.442139    2.920181    0.635791 C.2      1 SUBUNIT    0.0403
     19 O19          -5.622611    0.033276    0.124916 O.3      1 SUBUNIT   -0.3570
     20 H20          -6.415514    0.592487    0.225079 H        1 SUBUNIT    0.2184
     21 O21          -5.848955    2.730974    0.609990 O.3      1 SUBUNIT   -0.3581
     22 H22          -5.791797    3.691320    0.768286 H        1 SUBUNIT    0.2183
     23 C23           1.611300    1.497003    2.975260 C.3      1 SUBUNIT    0.1049
     24 O24          -2.093947    8.836572    0.511928 O.3      1 SUBUNIT   -0.3609
     25 H25          -2.298192    9.187230    1.398179 H        1 SUBUNIT    0.2182
@<TRIPOS>BOND
     1    1    4 1
     2    2   18 2
     3    2    3 1
     4    2   21 1
     5    3    4 2
     6    3   19 1
     7    4    5 1
     8    5    6 2
     9    5   11 1
    10    6   18 1
    11    6    7 1
    12    7    8 1
    13    7   12 1
    14    8    9 1
    15    9   10 1
    16    9   23 1
    17   10   11 1
    18   12   13 2
    19   12   17 1
    20   13   14 1
    21   14   15 2
    22   15   16 1
    23   15   24 1
    24   16   17 2
    25   19   20 1
    26   21   22 1
    27   24   25 1
@<SCITEGIC>ATOM_PROPERTY
Formal Charge
SciTegic.value.StringValue
1 0
2 0
3 0
4 0
5 0
6 0
7 0
8 0
9 0
10 0
11 0
12 0
13 0
14 0
15 0
16 0
17 0
18 0
19 0
20 0
21 0
22 0
23 0
24 0
25 0

@<SCITEGIC>ATOM_PROPERTY
pdb_tempFactor
SciTegic.value.DoubleValue
1 0.00
2 0.00
3 0.00
4 0.00
5 0.00
6 0.00
7 0.00
8 0.00
9 0.00
10 0.00
11 0.00
12 0.00
13 0.00
14 0.00
15 0.00
16 0.00
17 0.00
18 0.00
19 0.00
20 0.00
21 0.00
22 0.00
23 0.00
24 0.00
25 0.00

@<SCITEGIC>ATOM_PROPERTY
pdb_occupancy
SciTegic.value.DoubleValue
1 1.00
2 1.00
3 1.00
4 1.00
5 1.00
6 1.00
7 1.00
8 1.00
9 1.00
10 1.00
11 1.00
12 1.00
13 1.00
14 1.00
15 1.00
16 1.00
17 1.00
18 1.00
19 1.00
20 1.00
21 1.00
22 1.00
23 1.00
24 1.00
25 1.00

#	copyright drugdesign.org
#	Creation time:	2024-01-11T11:02:51Z

@<SCITEGIC>ROOT_PROPERTY
Ligand:MaximumNumberOfAtoms
SciTegic.value.IntegerValue
100

@<SCITEGIC>ROOT_PROPERTY
Ligand:HydrogenAtomsCountTowardsMaximum
SciTegic.value.BooleanValue
FALSE

@<TRIPOS>MOLECULE
A68930
   24    26     0 0 0
SMALL
USER_CHARGES


@<TRIPOS>ATOM
      1 H1            5.230821    7.973209    0.715412 H        1 SUBUNIT    0.1185
      2 C2           -0.175367   12.320936   -1.099257 C.2      1 SUBUNIT    0.1016
      3 C3           -0.118880   10.925014   -1.057059 C.2      1 SUBUNIT    0.0361
      4 C4            1.099574   10.249652   -1.096138 C.2      1 SUBUNIT    0.0094
      5 C5            2.300142   10.960462   -1.178694 C.2      1 SUBUNIT   -0.0119
      6 C6            2.246651   12.359266   -1.255281 C.2      1 SUBUNIT   -0.0065
      7 C7            3.546970   13.114992   -1.411918 C.3      1 SUBUNIT    0.0754
      8 C8            4.662140   12.202247   -1.945975 C.3      1 SUBUNIT    0.1534
      9 O9            4.754116   11.077608   -1.090237 O.3      1 SUBUNIT   -0.3639
     10 C10           3.627732   10.216035   -1.215012 C.3      1 SUBUNIT    0.1628
     11 C11           3.761469    9.174698   -0.081495 C.3      1 SUBUNIT    0.1144
     12 N12           5.067232    8.549270   -0.114163 N.3      1 SUBUNIT   -0.3277
     13 C13           1.021523   13.049731   -1.198277 C.2      1 SUBUNIT    0.1050
     14 H14           5.810930    9.253196   -0.110738 H        1 SUBUNIT    0.1185
     15 O15          -1.378175   12.967363   -1.049162 O.3      1 SUBUNIT   -0.3582
     16 H16          -1.234771   13.931050   -1.086715 H        1 SUBUNIT    0.2183
     17 O17           0.934408   14.414724   -1.235167 O.3      1 SUBUNIT   -0.3579
     18 H18           1.799392   14.852462   -1.150606 H        1 SUBUNIT    0.2183
     19 C19           5.979792   12.958739   -2.003680 C.2      1 SUBUNIT   -0.0189
     20 C20           6.426586   13.516126   -3.208421 C.2      1 SUBUNIT    0.0062
     21 C21           7.633623   14.217135   -3.265387 C.2      1 SUBUNIT    0.0004
     22 C22           8.407947   14.370908   -2.113076 C.2      1 SUBUNIT    0.0000
     23 C23           7.968678   13.823336   -0.905417 C.2      1 SUBUNIT    0.0004
     24 C24           6.760950   13.123165   -0.852950 C.2      1 SUBUNIT    0.0062
@<TRIPOS>BOND
     1    1   12 1
     2    2   13 2
     3    2    3 1
     4    2   15 1
     5    3    4 2
     6    4    5 1
     7    5    6 2
     8    5   10 1
     9    6   13 1
    10    6    7 1
    11    7    8 1
    12    8    9 1
    13    8   19 1
    14    9   10 1
    15   10   11 1
    16   11   12 1
    17   12   14 1
    18   13   17 1
    19   15   16 1
    20   17   18 1
    21   19   20 2
    22   19   24 1
    23   20   21 1
    24   21   22 2
    25   22   23 1
    26   23   24 2
@<SCITEGIC>ATOM_PROPERTY
Formal Charge
SciTegic.value.StringValue
1 0
2 0
3 0
4 0
5 0
6 0
7 0
8 0
9 0
10 0
11 0
12 0
13 0
14 0
15 0
16 0
17 0
18 0
19 0
20 0
21 0
22 0
23 0
24 0

@<SCITEGIC>ATOM_PROPERTY
pdb_tempFactor
SciTegic.value.DoubleValue
1 0.00
2 0.00
3 0.00
4 0.00
5 0.00
6 0.00
7 0.00
8 0.00
9 0.00
10 0.00
11 0.00
12 0.00
13 0.00
14 0.00
15 0.00
16 0.00
17 0.00
18 0.00
19 0.00
20 0.00
21 0.00
22 0.00
23 0.00
24 0.00

@<SCITEGIC>ATOM_PROPERTY
pdb_occupancy
SciTegic.value.DoubleValue
1 1.00
2 1.00
3 1.00
4 1.00
5 1.00
6 1.00
7 1.00
8 1.00
9 1.00
10 1.00
11 1.00
12 1.00
13 1.00
14 1.00
15 1.00
16 1.00
17 1.00
18 1.00
19 1.00
20 1.00
21 1.00
22 1.00
23 1.00
24 1.00

#	copyright drugdesign.org
#	Creation time:	2024-01-11T11:02:51Z

@<SCITEGIC>ROOT_PROPERTY
Ligand:MaximumNumberOfAtoms
SciTegic.value.IntegerValue
100

@<SCITEGIC>ROOT_PROPERTY
Ligand:HydrogenAtomsCountTowardsMaximum
SciTegic.value.BooleanValue
FALSE

@<TRIPOS>MOLECULE
CY208243
   22    26     0 0 0
SMALL
USER_CHARGES


@<TRIPOS>ATOM
      1 C1          -12.676290   -2.063646   -0.226376 C.2      1 SUBUNIT    0.0020
      2 C2          -13.823663   -2.870158   -0.265088 C.2      1 SUBUNIT    0.0207
      3 C3          -15.046110   -2.236721   -0.071823 C.2      1 SUBUNIT    0.0264
      4 C4          -15.060327   -0.872630    0.162947 C.2      1 SUBUNIT    0.0008
      5 C5          -13.956769   -0.036112    0.240521 C.2      1 SUBUNIT   -0.0297
      6 C6          -14.292974    1.415815    0.554442 C.3      1 SUBUNIT    0.0677
      7 C7          -15.597044    1.805702   -0.215009 C.3      1 SUBUNIT    0.0727
      8 C8          -16.807100    0.995862    0.344173 C.3      1 SUBUNIT    0.0569
      9 C9          -16.443453   -0.455446    0.246713 C.2      1 SUBUNIT   -0.0264
     10 C10         -13.162669    2.414982    0.437009 C.2      1 SUBUNIT   -0.0344
     11 C11         -13.345159    3.601121   -0.282912 C.2      1 SUBUNIT   -0.0300
     12 C12         -14.686096    3.902165   -0.907677 C.3      1 SUBUNIT    0.1199
     13 N13         -15.784580    3.255672   -0.187950 N.3      1 SUBUNIT   -0.2978
     14 C14         -17.162416   -1.581023    0.091134 C.2      1 SUBUNIT    0.0612
     15 N15         -16.327801   -2.630299   -0.067563 N.pl3    1 SUBUNIT   -0.2645
     16 C16         -11.952778    2.223830    1.117255 C.2      1 SUBUNIT    0.0045
     17 C17         -10.912371    3.149831    1.018505 C.2      1 SUBUNIT    0.0003
     18 C18         -11.081287    4.302118    0.250174 C.2      1 SUBUNIT    0.0004
     19 C19         -12.302069    4.528891   -0.387724 C.2      1 SUBUNIT    0.0052
     20 C20         -12.732850   -0.679510    0.014603 C.2      1 SUBUNIT    0.0050
     21 H21         -16.636225   -3.591663   -0.239813 H        1 SUBUNIT    0.1336
     22 C22         -17.060633    3.682875   -0.753831 C.3      1 SUBUNIT    0.1056
@<TRIPOS>BOND
     1    1   20 2
     2    1    2 1
     3    2    3 2
     4    3    4 1
     5    3   15 1
     6    4    5 2
     7    4    9 1
     8    5   20 1
     9    5    6 1
    10    6    7 1
    11    6   10 1
    12    7    8 1
    13    7   13 1
    14    8    9 1
    15    9   14 2
    16   10   11 1
    17   10   16 2
    18   11   12 1
    19   11   19 2
    20   12   13 1
    21   13   22 1
    22   14   15 1
    23   15   21 1
    24   16   17 1
    25   17   18 2
    26   18   19 1
@<SCITEGIC>ATOM_PROPERTY
Formal Charge
SciTegic.value.StringValue
1 0
2 0
3 0
4 0
5 0
6 0
7 0
8 0
9 0
10 0
11 0
12 0
13 0
14 0
15 0
16 0
17 0
18 0
19 0
20 0
21 0
22 0

@<SCITEGIC>ATOM_PROPERTY
pdb_tempFactor
SciTegic.value.DoubleValue
1 0.00
2 0.00
3 0.00
4 0.00
5 0.00
6 0.00
7 0.00
8 0.00
9 0.00
10 0.00
11 0.00
12 0.00
13 0.00
14 0.00
15 0.00
16 0.00
17 0.00
18 0.00
19 0.00
20 0.00
21 0.00
22 0.00

@<SCITEGIC>ATOM_PROPERTY
pdb_occupancy
SciTegic.value.DoubleValue
1 1.00
2 1.00
3 1.00
4 1.00
5 1.00
6 1.00
7 1.00
8 1.00
9 1.00
10 1.00
11 1.00
12 1.00
13 1.00
14 1.00
15 1.00
16 1.00
17 1.00
18 1.00
19 1.00
20 1.00
21 1.00
22 1.00

