#	copyright drugdesign.org
#	Creation time:	2024-01-11T11:02:55Z

@<SCITEGIC>ROOT_PROPERTY
Ligand:MaximumNumberOfAtoms
SciTegic.value.IntegerValue
100

@<SCITEGIC>ROOT_PROPERTY
Ligand:HydrogenAtomsCountTowardsMaximum
SciTegic.value.BooleanValue
FALSE

@<TRIPOS>MOLECULE
indoline
   33    34     0 0 0
SMALL
USER_CHARGES


@<TRIPOS>ATOM
      1 C1           -4.566994   -1.284428    2.345702 C.2      1 SUBUNIT   -0.0239
      2 C2           -5.876147   -0.807525    2.400311 C.2      1 SUBUNIT    0.0396
      3 C3           -6.904375   -1.731472    2.586088 C.2      1 SUBUNIT   -0.0402
      4 C4           -6.604775   -3.089291    2.719498 C.2      1 SUBUNIT   -0.0604
      5 C5           -5.287024   -3.543468    2.667067 C.2      1 SUBUNIT   -0.0618
      6 C6           -4.250091   -2.632488    2.477111 C.2      1 SUBUNIT   -0.0571
      7 C7           -3.581833   -0.175315    2.144488 C.3      1 SUBUNIT    0.0028
      8 N8           -5.863787    0.533702    2.237371 N.am     1 SUBUNIT   -0.2577
      9 C9           -4.533853    0.976848    1.776127 C.3      1 SUBUNIT    0.1201
     10 C10          -4.517763    1.228653    0.277682 C.2      1 SUBUNIT    0.2798
     11 O11          -5.275986    0.777960   -0.556343 O.2      1 SUBUNIT   -0.2646
     12 O12          -3.495057    2.046672   -0.024366 O.3      1 SUBUNIT   -0.3302
     13 C13          -6.827942    1.538354    2.360563 C.2      1 SUBUNIT    0.2230
     14 C14          -8.245080    1.261018    2.849414 C.3      1 SUBUNIT    0.0424
     15 C15          -9.205052    2.447366    2.615966 C.3      1 SUBUNIT    0.0014
     16 S16          -9.577983    2.654518    0.841079 S.3      1 SUBUNIT   -0.1785
     17 H17          -8.412620    3.223967    0.481825 H        1 SUBUNIT    0.1022
     18 H18          -3.665636    2.128246   -0.978611 H        1 SUBUNIT    0.2214
     19 O19          -6.518751    2.688945    2.093263 O.2      1 SUBUNIT   -0.2767
     20 C20          -8.216786    0.915371    4.349305 C.3      1 SUBUNIT   -0.0530
     21 H21          -7.964769   -1.452602    2.630053 H        1 SUBUNIT    0.0643
     22 H22          -7.421560   -3.816403    2.866937 H        1 SUBUNIT    0.0623
     23 H23          -5.065741   -4.618779    2.774133 H        1 SUBUNIT    0.0623
     24 H24          -3.201031   -2.968335    2.432543 H        1 SUBUNIT    0.0626
     25 H25          -3.053967    0.014438    3.108848 H        1 SUBUNIT    0.0342
     26 H26          -2.837922   -0.409532    1.347811 H        1 SUBUNIT    0.0342
     27 H27          -4.209545    1.902878    2.311449 H        1 SUBUNIT    0.0623
     28 H28          -8.654228    0.408953    2.262251 H        1 SUBUNIT    0.0407
     29 H29         -10.170149    2.237444    3.132096 H        1 SUBUNIT    0.0385
     30 H30          -8.809949    3.386593    3.067736 H        1 SUBUNIT    0.0385
     31 H31          -9.223717    0.605260    4.711963 H        1 SUBUNIT    0.0239
     32 H32          -7.514946    0.083567    4.582511 H        1 SUBUNIT    0.0239
     33 H33          -7.892427    1.795093    4.951252 H        1 SUBUNIT    0.0239
@<TRIPOS>BOND
     1    1    2 2
     2    1    6 1
     3    1    7 1
     4    2    3 1
     5    2    8 1
     6    3    4 2
     7    3   21 1
     8    4    5 1
     9    4   22 1
    10    5    6 2
    11    5   23 1
    12    6   24 1
    13    7    9 1
    14    7   25 1
    15    7   26 1
    16    8    9 1
    17    8   13 1
    18    9   10 1
    19    9   27 1
    20   10   11 2
    21   10   12 1
    22   12   18 1
    23   13   14 1
    24   13   19 2
    25   14   15 1
    26   14   20 1
    27   14   28 1
    28   15   16 1
    29   15   29 1
    30   15   30 1
    31   16   17 1
    32   20   31 1
    33   20   32 1
    34   20   33 1
@<SCITEGIC>ATOM_PROPERTY
Formal Charge
SciTegic.value.StringValue
1 0
2 0
3 0
4 0
5 0
6 0
7 0
8 0
9 0
10 0
11 0
12 0
13 0
14 0
15 0
16 0
17 0
18 0
19 0
20 0
21 0
22 0
23 0
24 0
25 0
26 0
27 0
28 0
29 0
30 0
31 0
32 0
33 0

@<SCITEGIC>ATOM_PROPERTY
pdb_tempFactor
SciTegic.value.DoubleValue
1 0.00
2 0.00
3 0.00
4 0.00
5 0.00
6 0.00
7 0.00
8 0.00
9 0.00
10 0.00
11 0.00
12 0.00
13 0.00
14 0.00
15 0.00
16 0.00
17 0.00
18 0.00
19 0.00
20 0.00
21 0.00
22 0.00
23 0.00
24 0.00
25 0.00
26 0.00
27 0.00
28 0.00
29 0.00
30 0.00
31 0.00
32 0.00
33 0.00

@<SCITEGIC>ATOM_PROPERTY
pdb_occupancy
SciTegic.value.DoubleValue
1 1.00
2 1.00
3 1.00
4 1.00
5 1.00
6 1.00
7 1.00
8 1.00
9 1.00
10 1.00
11 1.00
12 1.00
13 1.00
14 1.00
15 1.00
16 1.00
17 1.00
18 1.00
19 1.00
20 1.00
21 1.00
22 1.00
23 1.00
24 1.00
25 1.00
26 1.00
27 1.00
28 1.00
29 1.00
30 1.00
31 1.00
32 1.00
33 1.00

#	copyright drugdesign.org
#	Creation time:	2024-01-11T11:02:55Z

@<SCITEGIC>ROOT_PROPERTY
Ligand:MaximumNumberOfAtoms
SciTegic.value.IntegerValue
100

@<SCITEGIC>ROOT_PROPERTY
Ligand:HydrogenAtomsCountTowardsMaximum
SciTegic.value.BooleanValue
FALSE

@<TRIPOS>MOLECULE
tetrahydropyridazine
   25    26     0 0 0
SMALL
USER_CHARGES


@<TRIPOS>ATOM
      1 O1           -5.422775    8.394989    0.817677 O.2      1 SUBUNIT   -0.2641
      2 C2           -5.241975    6.541248   -0.750353 C.3      1 SUBUNIT    0.1501
      3 N3           -4.150697    7.280552   -1.461389 N.am     1 SUBUNIT   -0.1828
      4 N4           -2.845964    6.993571   -1.373442 N.am     1 SUBUNIT   -0.1954
      5 C5           -2.280255    5.869086   -0.569099 C.3      1 SUBUNIT    0.0536
      6 C6           -3.377476    5.035236    0.038768 C.2      1 SUBUNIT   -0.0669
      7 C7           -5.934552    7.457413    0.241680 C.2      1 SUBUNIT    0.2850
      8 C8           -4.684815    5.328166   -0.046450 C.2      1 SUBUNIT   -0.0547
      9 O9           -7.227187    7.111486    0.388781 O.3      1 SUBUNIT   -0.3300
     10 H10          -7.480681    7.824377    0.998968 H        1 SUBUNIT    0.2215
     11 C11          -4.303929    8.457842   -2.332989 C.2      1 SUBUNIT    0.3297
     12 N12          -3.036780    8.829688   -2.741353 N.am     1 SUBUNIT   -0.1965
     13 C13          -2.102893    7.974023   -2.185658 C.2      1 SUBUNIT    0.3289
     14 O14          -5.344119    9.002046   -2.643726 O.2      1 SUBUNIT   -0.2515
     15 O15          -0.900759    8.023099   -2.348077 O.2      1 SUBUNIT   -0.2516
     16 C16          -2.739118    9.960010   -3.564676 C.3      1 SUBUNIT    0.0680
     17 S17          -2.704244   11.469111   -2.550242 S.3      1 SUBUNIT   -0.1594
     18 H18          -4.007424   11.463777   -2.211711 H        1 SUBUNIT    0.1039
     19 H19          -5.969667    6.202810   -1.525383 H        1 SUBUNIT    0.0682
     20 H20          -1.631383    6.280132    0.237940 H        1 SUBUNIT    0.0534
     21 H21          -1.662553    5.226577   -1.237949 H        1 SUBUNIT    0.0534
     22 H22          -3.066100    4.132436    0.592762 H        1 SUBUNIT    0.0591
     23 H23          -5.414989    4.657677    0.439276 H        1 SUBUNIT    0.0599
     24 H24          -3.496431   10.043328   -4.377578 H        1 SUBUNIT    0.0591
     25 H25          -1.756932    9.817626   -4.070025 H        1 SUBUNIT    0.0591
@<TRIPOS>BOND
     1    1    7 2
     2    2    8 1
     3    2    3 1
     4    2    7 1
     5    2   19 1
     6    3    4 1
     7    3   11 1
     8    4    5 1
     9    4   13 1
    10    5    6 1
    11    5   20 1
    12    5   21 1
    13    6    8 2
    14    6   22 1
    15    7    9 1
    16    8   23 1
    17    9   10 1
    18   11   12 1
    19   11   14 2
    20   12   13 1
    21   12   16 1
    22   13   15 2
    23   16   17 1
    24   16   24 1
    25   16   25 1
    26   17   18 1
@<SCITEGIC>ATOM_PROPERTY
Formal Charge
SciTegic.value.StringValue
1 0
2 0
3 0
4 0
5 0
6 0
7 0
8 0
9 0
10 0
11 0
12 0
13 0
14 0
15 0
16 0
17 0
18 0
19 0
20 0
21 0
22 0
23 0
24 0
25 0

@<SCITEGIC>ATOM_PROPERTY
pdb_tempFactor
SciTegic.value.DoubleValue
1 0.00
2 0.00
3 0.00
4 0.00
5 0.00
6 0.00
7 0.00
8 0.00
9 0.00
10 0.00
11 0.00
12 0.00
13 0.00
14 0.00
15 0.00
16 0.00
17 0.00
18 0.00
19 0.00
20 0.00
21 0.00
22 0.00
23 0.00
24 0.00
25 0.00

@<SCITEGIC>ATOM_PROPERTY
pdb_occupancy
SciTegic.value.DoubleValue
1 1.00
2 1.00
3 1.00
4 1.00
5 1.00
6 1.00
7 1.00
8 1.00
9 1.00
10 1.00
11 1.00
12 1.00
13 1.00
14 1.00
15 1.00
16 1.00
17 1.00
18 1.00
19 1.00
20 1.00
21 1.00
22 1.00
23 1.00
24 1.00
25 1.00

