#	copyright drugdesign.org
#	Creation time:	2024-01-11T11:03:01Z

@<SCITEGIC>ROOT_PROPERTY
Ligand:MaximumNumberOfAtoms
SciTegic.value.IntegerValue
100

@<SCITEGIC>ROOT_PROPERTY
Ligand:HydrogenAtomsCountTowardsMaximum
SciTegic.value.BooleanValue
FALSE

@<TRIPOS>MOLECULE
methiothepin
   24    27     0 0 0
SMALL
USER_CHARGES


@<TRIPOS>ATOM
      1 C1          -37.212856    9.458555    1.123340 C.2      1 SUBUNIT    0.0012
      2 C2          -37.982555    8.368797    0.727269 C.2      1 SUBUNIT    0.0004
      3 C3          -37.554432    7.078526    1.034723 C.2      1 SUBUNIT    0.0048
      4 C4          -36.362743    6.829510    1.732876 C.2      1 SUBUNIT   -0.0321
      5 C5          -35.596512    7.939332    2.127789 C.2      1 SUBUNIT    0.0155
      6 S6          -34.048794    7.836440    2.994589 S.3      1 SUBUNIT   -0.0894
      7 C7          -33.237091    6.786456    1.825167 C.2      1 SUBUNIT    0.0171
      8 C8          -33.645638    5.457141    1.694372 C.2      1 SUBUNIT   -0.0154
      9 C9          -34.737240    4.907251    2.608193 C.3      1 SUBUNIT    0.0923
     10 C10         -36.080914    5.354478    1.996965 C.3      1 SUBUNIT    0.0604
     11 N11         -34.599072    3.453950    2.795534 N.3      1 SUBUNIT   -0.2934
     12 C12         -35.737549    2.815018    3.443851 C.3      1 SUBUNIT    0.1004
     13 C13         -35.524223    1.298264    3.604041 C.3      1 SUBUNIT    0.0995
     14 N14         -34.315086    1.008037    4.357985 N.3      1 SUBUNIT   -0.3038
     15 C15         -33.177490    1.630005    3.699469 C.3      1 SUBUNIT    0.0995
     16 C16         -33.394211    3.145955    3.565848 C.3      1 SUBUNIT    0.1004
     17 C17         -32.237244    7.304779    1.002491 C.2      1 SUBUNIT    0.0167
     18 C18         -31.637522    6.502775    0.031858 C.2      1 SUBUNIT    0.0160
     19 C19         -32.041454    5.175817   -0.136585 C.2      1 SUBUNIT    0.0074
     20 C20         -33.050823    4.677940    0.694851 C.2      1 SUBUNIT    0.0212
     21 S21         -31.370033    4.073269   -1.352698 S.3      1 SUBUNIT   -0.1295
     22 C22         -29.862360    4.920285   -1.882995 C.3      1 SUBUNIT    0.0906
     23 C23         -36.026829    9.235372    1.819816 C.2      1 SUBUNIT    0.0155
     24 C24         -34.118587   -0.425349    4.520850 C.3      1 SUBUNIT    0.1049
@<TRIPOS>BOND
     1    1   23 2
     2    1    2 1
     3    2    3 2
     4    3    4 1
     5    4    5 2
     6    4   10 1
     7    5   23 1
     8    5    6 1
     9    6    7 1
    10    7    8 2
    11    7   17 1
    12    8    9 1
    13    8   20 1
    14    9   10 1
    15    9   11 1
    16   11   12 1
    17   11   16 1
    18   12   13 1
    19   13   14 1
    20   14   15 1
    21   14   24 1
    22   15   16 1
    23   17   18 2
    24   18   19 1
    25   19   20 2
    26   19   21 1
    27   21   22 1
@<SCITEGIC>ATOM_PROPERTY
Formal Charge
SciTegic.value.StringValue
1 0
2 0
3 0
4 0
5 0
6 0
7 0
8 0
9 0
10 0
11 0
12 0
13 0
14 0
15 0
16 0
17 0
18 0
19 0
20 0
21 0
22 0
23 0
24 0

@<SCITEGIC>ATOM_PROPERTY
pdb_tempFactor
SciTegic.value.DoubleValue
1 0.00
2 0.00
3 0.00
4 0.00
5 0.00
6 0.00
7 0.00
8 0.00
9 0.00
10 0.00
11 0.00
12 0.00
13 0.00
14 0.00
15 0.00
16 0.00
17 0.00
18 0.00
19 0.00
20 0.00
21 0.00
22 0.00
23 0.00
24 0.00

@<SCITEGIC>ATOM_PROPERTY
pdb_occupancy
SciTegic.value.DoubleValue
1 1.00
2 1.00
3 1.00
4 1.00
5 1.00
6 1.00
7 1.00
8 1.00
9 1.00
10 1.00
11 1.00
12 1.00
13 1.00
14 1.00
15 1.00
16 1.00
17 1.00
18 1.00
19 1.00
20 1.00
21 1.00
22 1.00
23 1.00
24 1.00

#	copyright drugdesign.org
#	Creation time:	2024-01-11T11:03:01Z

@<SCITEGIC>ROOT_PROPERTY
Ligand:MaximumNumberOfAtoms
SciTegic.value.IntegerValue
100

@<SCITEGIC>ROOT_PROPERTY
Ligand:HydrogenAtomsCountTowardsMaximum
SciTegic.value.BooleanValue
FALSE

@<TRIPOS>MOLECULE
buspirone
   28    31     0 0 0
SMALL
USER_CHARGES


@<TRIPOS>ATOM
      1 O1          -25.844790    8.768647    3.847755 O.2      1 SUBUNIT   -0.2770
      2 C2          -29.887892   -4.088351    1.957855 C.2      1 SUBUNIT    0.0403
      3 C3          -28.592287   -3.792952    2.361655 C.2      1 SUBUNIT    0.1160
      4 N4          -28.000990   -2.443553    2.344155 N.2      1 SUBUNIT   -0.2265
      5 C5          -28.942190   -1.318953    1.817154 C.2      1 SUBUNIT    0.2027
      6 N6          -30.395491   -1.672053    1.378954 N.2      1 SUBUNIT   -0.2265
      7 N7          -28.507288   -0.042651    1.756954 N.pl3    1 SUBUNIT   -0.2405
      8 C8          -27.223688    0.281347    2.365555 C.3      1 SUBUNIT    0.1086
      9 C9          -26.659986    1.605549    1.831354 C.3      1 SUBUNIT    0.1003
     10 N10         -27.662687    2.661448    1.824354 N.3      1 SUBUNIT   -0.3007
     11 C11         -28.775690    2.279348    0.963655 C.3      1 SUBUNIT    0.1003
     12 C12         -29.473093    1.007349    1.461254 C.3      1 SUBUNIT    0.1086
     13 C13         -27.115686    3.949949    1.395654 C.3      1 SUBUNIT    0.0844
     14 C14         -26.023890    4.522948    2.320855 C.3      1 SUBUNIT    0.0171
     15 C15         -25.663187    5.973645    1.951355 C.3      1 SUBUNIT    0.0211
     16 C16         -24.563686    6.543846    2.864355 C.3      1 SUBUNIT    0.1170
     17 N17         -24.232487    7.912046    2.479155 N.am     1 SUBUNIT   -0.2418
     18 C18         -23.267185    8.119548    1.497854 C.2      1 SUBUNIT    0.2213
     19 C19         -22.932386    9.538447    1.066154 C.3      1 SUBUNIT    0.1052
     20 C20         -24.951588    8.963048    3.040155 C.2      1 SUBUNIT    0.2213
     21 C21         -30.748394   -3.101853    1.493054 C.2      1 SUBUNIT    0.1160
     22 O22         -22.674686    7.187746    0.979055 O.2      1 SUBUNIT   -0.2770
     23 C23         -24.137886   10.483649    1.187955 C.3      1 SUBUNIT   -0.0126
     24 C24         -24.601088   10.389249    2.651055 C.3      1 SUBUNIT    0.1052
     25 C25         -23.757086   11.936547    0.817055 C.3      1 SUBUNIT    0.0079
     26 C26         -24.927588   12.460549   -0.026545 C.3      1 SUBUNIT    0.0006
     27 C27         -25.324688   11.222148   -0.838946 C.3      1 SUBUNIT    0.0006
     28 C28         -25.272886   10.098248    0.206955 C.3      1 SUBUNIT    0.0079
@<TRIPOS>BOND
     1    1   20 2
     2    2   21 2
     3    2    3 1
     4    3    4 2
     5    4    5 1
     6    5    6 2
     7    5    7 1
     8    6   21 1
     9    7    8 1
    10    7   12 1
    11    8    9 1
    12    9   10 1
    13   10   11 1
    14   10   13 1
    15   11   12 1
    16   13   14 1
    17   14   15 1
    18   15   16 1
    19   16   17 1
    20   17   18 1
    21   17   20 1
    22   18   19 1
    23   18   22 2
    24   19   23 1
    25   20   24 1
    26   23   24 1
    27   23   25 1
    28   23   28 1
    29   25   26 1
    30   26   27 1
    31   27   28 1
@<SCITEGIC>ATOM_PROPERTY
Formal Charge
SciTegic.value.StringValue
1 0
2 0
3 0
4 0
5 0
6 0
7 0
8 0
9 0
10 0
11 0
12 0
13 0
14 0
15 0
16 0
17 0
18 0
19 0
20 0
21 0
22 0
23 0
24 0
25 0
26 0
27 0
28 0

@<SCITEGIC>ATOM_PROPERTY
pdb_tempFactor
SciTegic.value.DoubleValue
1 0.00
2 0.00
3 0.00
4 0.00
5 0.00
6 0.00
7 0.00
8 0.00
9 0.00
10 0.00
11 0.00
12 0.00
13 0.00
14 0.00
15 0.00
16 0.00
17 0.00
18 0.00
19 0.00
20 0.00
21 0.00
22 0.00
23 0.00
24 0.00
25 0.00
26 0.00
27 0.00
28 0.00

@<SCITEGIC>ATOM_PROPERTY
pdb_occupancy
SciTegic.value.DoubleValue
1 1.00
2 1.00
3 1.00
4 1.00
5 1.00
6 1.00
7 1.00
8 1.00
9 1.00
10 1.00
11 1.00
12 1.00
13 1.00
14 1.00
15 1.00
16 1.00
17 1.00
18 1.00
19 1.00
20 1.00
21 1.00
22 1.00
23 1.00
24 1.00
25 1.00
26 1.00
27 1.00
28 1.00

#	copyright drugdesign.org
#	Creation time:	2024-01-11T11:03:01Z

@<SCITEGIC>ROOT_PROPERTY
Ligand:MaximumNumberOfAtoms
SciTegic.value.IntegerValue
100

@<SCITEGIC>ROOT_PROPERTY
Ligand:HydrogenAtomsCountTowardsMaximum
SciTegic.value.BooleanValue
FALSE

@<TRIPOS>MOLECULE
spiperone
   29    32     0 0 0
SMALL
USER_CHARGES


@<TRIPOS>ATOM
      1 C1          -17.461092    7.805789    4.236433 C.3      1 SUBUNIT    0.0483
      2 C2          -16.814287    4.462667    5.917944 C.3      1 SUBUNIT    0.0847
      3 C3          -18.208759    3.869308    6.052332 C.3      1 SUBUNIT    0.0237
      4 C4          -18.151209    2.383750    6.382832 C.3      1 SUBUNIT    0.0822
      5 C5          -19.466322    1.815075    6.750789 C.2      1 SUBUNIT    0.1624
      6 C6          -19.575430    0.368079    6.999512 C.2      1 SUBUNIT    0.0177
      7 C7          -18.581793   -0.531188    6.664272 C.2      1 SUBUNIT    0.0146
      8 C8          -18.700071   -1.887669    6.850989 C.2      1 SUBUNIT    0.0398
      9 C9          -19.885355   -2.332173    7.476272 C.2      1 SUBUNIT    0.1228
     10 C10         -20.885496   -1.467742    7.834145 C.2      1 SUBUNIT    0.0398
     11 C11         -15.637593   10.567090    3.307748 C.3      1 SUBUNIT    0.1981
     12 C12         -20.741920   -0.118970    7.588415 C.2      1 SUBUNIT    0.0146
     13 C13         -17.237850   10.748895    5.133783 C.2      1 SUBUNIT    0.0195
     14 C14         -17.598877   12.008220    4.594009 C.2      1 SUBUNIT    0.0200
     15 C15         -18.543692   12.803229    5.255860 C.2      1 SUBUNIT    0.0016
     16 C16         -19.155293   12.377334    6.392231 C.2      1 SUBUNIT    0.0001
     17 C17         -18.814068   11.157729    6.929847 C.2      1 SUBUNIT    0.0016
     18 C18         -17.863993   10.341722    6.313584 C.2      1 SUBUNIT    0.0200
     19 C19         -15.153094    8.295157    3.346705 C.2      1 SUBUNIT    0.2337
     20 C20         -16.138979    8.512822    4.504630 C.3      1 SUBUNIT    0.1060
     21 C21         -15.485250    7.966239    5.788855 C.3      1 SUBUNIT    0.0483
     22 C22         -15.486079    6.463724    5.858333 C.3      1 SUBUNIT    0.0867
     23 C23         -17.382561    6.288536    4.404234 C.3      1 SUBUNIT    0.0867
     24 F24         -20.053869   -3.611144    7.728056 F        1 SUBUNIT   -0.2070
     25 N25         -16.242733    9.998624    4.502569 N.pl3    1 SUBUNIT   -0.2435
     26 N26         -14.863173    9.460704    2.802066 N.am     1 SUBUNIT   -0.1498
     27 N27         -16.849077    5.929039    5.698925 N.3      1 SUBUNIT   -0.3031
     28 O28         -14.726510    7.191341    2.982997 O.2      1 SUBUNIT   -0.2755
     29 O29         -20.469786    2.530581    6.852079 O.2      1 SUBUNIT   -0.2942
@<TRIPOS>BOND
     1    1   20 1
     2    1   23 1
     3    2    3 1
     4    2   27 1
     5    3    4 1
     6    4    5 1
     7    5    6 1
     8    5   29 2
     9    6    7 2
    10    6   12 1
    11    7    8 1
    12    8    9 2
    13    9   10 1
    14    9   24 1
    15   10   12 2
    16   11   25 1
    17   11   26 1
    18   13   14 2
    19   13   18 1
    20   13   25 1
    21   14   15 1
    22   15   16 2
    23   16   17 1
    24   17   18 2
    25   19   20 1
    26   19   26 1
    27   19   28 2
    28   20   21 1
    29   20   25 1
    30   21   22 1
    31   22   27 1
    32   23   27 1
@<SCITEGIC>ATOM_PROPERTY
Formal Charge
SciTegic.value.StringValue
1 0
2 0
3 0
4 0
5 0
6 0
7 0
8 0
9 0
10 0
11 0
12 0
13 0
14 0
15 0
16 0
17 0
18 0
19 0
20 0
21 0
22 0
23 0
24 0
25 0
26 0
27 0
28 0
29 0

@<SCITEGIC>ATOM_PROPERTY
pdb_tempFactor
SciTegic.value.DoubleValue
1 0.00
2 0.00
3 0.00
4 0.00
5 0.00
6 0.00
7 0.00
8 0.00
9 0.00
10 0.00
11 0.00
12 0.00
13 0.00
14 0.00
15 0.00
16 0.00
17 0.00
18 0.00
19 0.00
20 0.00
21 0.00
22 0.00
23 0.00
24 0.00
25 0.00
26 0.00
27 0.00
28 0.00
29 0.00

@<SCITEGIC>ATOM_PROPERTY
pdb_occupancy
SciTegic.value.DoubleValue
1 1.00
2 1.00
3 1.00
4 1.00
5 1.00
6 1.00
7 1.00
8 1.00
9 1.00
10 1.00
11 1.00
12 1.00
13 1.00
14 1.00
15 1.00
16 1.00
17 1.00
18 1.00
19 1.00
20 1.00
21 1.00
22 1.00
23 1.00
24 1.00
25 1.00
26 1.00
27 1.00
28 1.00
29 1.00

#	copyright drugdesign.org
#	Creation time:	2024-01-11T11:03:01Z

@<SCITEGIC>ROOT_PROPERTY
Ligand:MaximumNumberOfAtoms
SciTegic.value.IntegerValue
100

@<SCITEGIC>ROOT_PROPERTY
Ligand:HydrogenAtomsCountTowardsMaximum
SciTegic.value.BooleanValue
FALSE

@<TRIPOS>MOLECULE
propranolol
   21    22     0 0 0
SMALL
USER_CHARGES


@<TRIPOS>ATOM
      1 C1          -12.105747    5.729266   -3.377773 C.2      1 SUBUNIT   -0.0158
      2 C2          -11.772739    4.386297   -3.144466 C.2      1 SUBUNIT    0.0120
      3 C3          -12.645163    3.335476   -3.493835 C.2      1 SUBUNIT    0.0829
      4 C4          -13.864418    3.697093   -4.089069 C.2      1 SUBUNIT    0.0339
      5 C5          -14.208778    5.027473   -4.327363 C.2      1 SUBUNIT    0.0034
      6 C6          -13.329681    6.048209   -3.971636 C.2      1 SUBUNIT    0.0087
      7 C7           -9.650221    5.123245   -2.191510 C.2      1 SUBUNIT    0.0008
      8 C8          -10.534824    4.103248   -2.548754 C.2      1 SUBUNIT    0.0113
      9 C9          -11.219286    6.752391   -3.019788 C.2      1 SUBUNIT    0.0086
     10 C10          -9.992094    6.454162   -2.426781 C.2      1 SUBUNIT    0.0007
     11 O11         -12.266001    2.037709   -3.241058 O.3      1 SUBUNIT   -0.3427
     12 C12         -13.111197    0.974367   -3.639851 C.3      1 SUBUNIT    0.2006
     13 C13         -12.439672   -0.354090   -3.271954 C.3      1 SUBUNIT    0.1541
     14 C14         -10.940674   -0.441384   -3.635506 C.3      1 SUBUNIT    0.1149
     15 N15         -10.688864   -0.029971   -5.005758 N.3      1 SUBUNIT   -0.3118
     16 H16         -10.975412    0.946866   -5.109041 H        1 SUBUNIT    0.1225
     17 C17          -9.296162   -0.135451   -5.425481 C.3      1 SUBUNIT    0.0471
     18 C18          -8.787191   -1.589729   -5.441802 C.3      1 SUBUNIT    0.0238
     19 C19          -9.162161    0.476190   -6.835777 C.3      1 SUBUNIT    0.0238
     20 O20         -12.567314   -0.568509   -1.878686 O.3      1 SUBUNIT   -0.3893
     21 H21         -13.461937   -0.797360   -1.678787 H        1 SUBUNIT    0.2106
@<TRIPOS>BOND
     1    1    2 2
     2    1    6 1
     3    1    9 1
     4    2    3 1
     5    2    8 1
     6    3    4 2
     7    3   11 1
     8    4    5 1
     9    5    6 2
    10    7    8 2
    11    7   10 1
    12    9   10 2
    13   11   12 1
    14   12   13 1
    15   13   14 1
    16   13   20 1
    17   14   15 1
    18   15   17 1
    19   15   16 1
    20   17   19 1
    21   17   18 1
    22   20   21 1
@<SCITEGIC>ATOM_PROPERTY
Formal Charge
SciTegic.value.StringValue
1 0
2 0
3 0
4 0
5 0
6 0
7 0
8 0
9 0
10 0
11 0
12 0
13 0
14 0
15 0
16 0
17 0
18 0
19 0
20 0
21 0

@<SCITEGIC>ATOM_PROPERTY
pdb_tempFactor
SciTegic.value.DoubleValue
1 0.00
2 0.00
3 0.00
4 0.00
5 0.00
6 0.00
7 0.00
8 0.00
9 0.00
10 0.00
11 0.00
12 0.00
13 0.00
14 0.00
15 0.00
16 0.00
17 0.00
18 0.00
19 0.00
20 0.00
21 0.00

@<SCITEGIC>ATOM_PROPERTY
pdb_occupancy
SciTegic.value.DoubleValue
1 1.00
2 1.00
3 1.00
4 1.00
5 1.00
6 1.00
7 1.00
8 1.00
9 1.00
10 1.00
11 1.00
12 1.00
13 1.00
14 1.00
15 1.00
16 1.00
17 1.00
18 1.00
19 1.00
20 1.00
21 1.00

