#	copyright drugdesign.org
#	Creation time:	2024-01-11T11:03:01Z

@<SCITEGIC>ROOT_PROPERTY
Ligand:MaximumNumberOfAtoms
SciTegic.value.IntegerValue
100

@<SCITEGIC>ROOT_PROPERTY
Ligand:HydrogenAtomsCountTowardsMaximum
SciTegic.value.BooleanValue
FALSE

@<TRIPOS>MOLECULE
pharmaco
    7     6     0 0 0
SMALL
USER_CHARGES


@<TRIPOS>ATOM
      1 C1           -9.515000  -12.950700   -0.013900 C.2      1 SUBUNIT    0.0000
      2 C2           -9.737600  -11.565500    0.010000 C.2      1 SUBUNIT    0.0000
      3 C7          -11.516400  -11.866700   -1.633600 C.2      1 SUBUNIT    0.0000
      4 C8          -10.746500  -11.041100   -0.811300 C.2      1 SUBUNIT    0.0000
      5 C9          -10.286600  -13.779000   -0.838100 C.2      1 SUBUNIT    0.0000
      6 C10         -11.287400  -13.241800   -1.648300 C.2      1 SUBUNIT    0.0000
      7 N15          -8.063700   -7.050900   -0.969300 N.3      1 SUBUNIT    0.0000
@<TRIPOS>BOND
     1    1    2 2
     2    1    5 1
     3    2    4 1
     4    3    4 2
     5    3    6 1
     6    5    6 2
@<SCITEGIC>ATOM_PROPERTY
Formal Charge
SciTegic.value.StringValue
1 0
2 0
3 0
4 0
5 0
6 0
7 0

@<SCITEGIC>ATOM_PROPERTY
pdb_tempFactor
SciTegic.value.DoubleValue
1 0.00
2 0.00
3 0.00
4 0.00
5 0.00
6 0.00
7 0.00

@<SCITEGIC>ATOM_PROPERTY
pdb_occupancy
SciTegic.value.DoubleValue
1 1.00
2 1.00
3 1.00
4 1.00
5 1.00
6 1.00
7 1.00

#	copyright drugdesign.org
#	Creation time:	2024-01-11T11:03:01Z

@<SCITEGIC>ROOT_PROPERTY
Ligand:MaximumNumberOfAtoms
SciTegic.value.IntegerValue
100

@<SCITEGIC>ROOT_PROPERTY
Ligand:HydrogenAtomsCountTowardsMaximum
SciTegic.value.BooleanValue
FALSE

@<TRIPOS>MOLECULE
MDL72832
   29    32     0 0 0
SMALL
USER_CHARGES


@<TRIPOS>ATOM
      1 O1           -2.666800   -4.245900   -0.130500 O.2      1 SUBUNIT   -0.2770
      2 C2           -7.792500   -6.171700   -0.892800 C.3      1 SUBUNIT    0.0809
      3 C3           -6.445000   -6.155600   -1.635900 C.3      1 SUBUNIT    0.0169
      4 C4           -5.715200   -4.811300   -1.472700 C.3      1 SUBUNIT    0.0210
      5 C5           -4.368000   -4.793800   -2.214600 C.3      1 SUBUNIT    0.1170
      6 N6           -3.692300   -3.512600   -2.030200 N.am     1 SUBUNIT   -0.2418
      7 C7           -3.922700   -2.489800   -2.944900 C.2      1 SUBUNIT    0.2213
      8 C8           -3.255300   -1.141600   -2.731300 C.3      1 SUBUNIT    0.1052
      9 C9           -2.842500   -3.350300   -0.939900 C.2      1 SUBUNIT    0.2213
     10 N10          -8.464200   -7.446400   -1.071400 N.3      1 SUBUNIT   -0.3140
     11 O11          -4.667000   -2.639600   -3.899400 O.2      1 SUBUNIT   -0.2770
     12 C12          -1.881000   -1.279900   -2.057000 C.3      1 SUBUNIT   -0.0126
     13 C13          -2.132000   -2.021500   -0.734900 C.3      1 SUBUNIT    0.1052
     14 C14          -9.747900   -7.503500   -0.397700 C.3      1 SUBUNIT    0.1156
     15 C15         -10.408000   -8.880500   -0.596800 C.3      1 SUBUNIT    0.1653
     16 C16         -10.679600   -9.194700   -2.063600 C.3      1 SUBUNIT    0.2016
     17 O17         -11.371800  -10.424700   -2.151100 O.3      1 SUBUNIT   -0.3406
     18 C18         -10.810000  -11.430800   -1.413000 C.2      1 SUBUNIT    0.1053
     19 C19          -9.893800  -11.154100   -0.384200 C.2      1 SUBUNIT    0.1057
     20 O20          -9.543100   -9.869200   -0.070400 O.3      1 SUBUNIT   -0.3364
     21 C21         -11.150400  -12.763200   -1.673800 C.2      1 SUBUNIT    0.0360
     22 C22         -10.592500  -13.819300   -0.956500 C.2      1 SUBUNIT    0.0029
     23 C23          -9.670400  -13.546200    0.050200 C.2      1 SUBUNIT    0.0029
     24 C24          -9.332400  -12.222500    0.324100 C.2      1 SUBUNIT    0.0361
     25 H25          -7.868500   -8.204300   -0.727800 H        1 SUBUNIT    0.1223
     26 C26          -1.240600    0.107400   -1.813900 C.3      1 SUBUNIT    0.0079
     27 C27          -0.169400    0.255400   -2.903100 C.3      1 SUBUNIT    0.0006
     28 C28           0.389000   -1.168800   -3.005300 C.3      1 SUBUNIT    0.0006
     29 C29          -0.877700   -2.036600   -2.961900 C.3      1 SUBUNIT    0.0079
@<TRIPOS>BOND
     1    1    9 2
     2    2   10 1
     3    2    3 1
     4    3    4 1
     5    4    5 1
     6    5    6 1
     7    6    7 1
     8    6    9 1
     9    7    8 1
    10    7   11 2
    11    8   12 1
    12    9   13 1
    13   10   14 1
    14   10   25 1
    15   12   13 1
    16   12   26 1
    17   12   29 1
    18   14   15 1
    19   15   16 1
    20   15   20 1
    21   16   17 1
    22   17   18 1
    23   18   19 1
    24   18   21 2
    25   19   20 1
    26   19   24 2
    27   21   22 1
    28   22   23 2
    29   23   24 1
    30   26   27 1
    31   27   28 1
    32   28   29 1
@<SCITEGIC>ATOM_PROPERTY
Formal Charge
SciTegic.value.StringValue
1 0
2 0
3 0
4 0
5 0
6 0
7 0
8 0
9 0
10 0
11 0
12 0
13 0
14 0
15 0
16 0
17 0
18 0
19 0
20 0
21 0
22 0
23 0
24 0
25 0
26 0
27 0
28 0
29 0

@<SCITEGIC>ATOM_PROPERTY
pdb_tempFactor
SciTegic.value.DoubleValue
1 0.00
2 0.00
3 0.00
4 0.00
5 0.00
6 0.00
7 0.00
8 0.00
9 0.00
10 0.00
11 0.00
12 0.00
13 0.00
14 0.00
15 0.00
16 0.00
17 0.00
18 0.00
19 0.00
20 0.00
21 0.00
22 0.00
23 0.00
24 0.00
25 0.00
26 0.00
27 0.00
28 0.00
29 0.00

@<SCITEGIC>ATOM_PROPERTY
pdb_occupancy
SciTegic.value.DoubleValue
1 1.00
2 1.00
3 1.00
4 1.00
5 1.00
6 1.00
7 1.00
8 1.00
9 1.00
10 1.00
11 1.00
12 1.00
13 1.00
14 1.00
15 1.00
16 1.00
17 1.00
18 1.00
19 1.00
20 1.00
21 1.00
22 1.00
23 1.00
24 1.00
25 1.00
26 1.00
27 1.00
28 1.00
29 1.00

#	copyright drugdesign.org
#	Creation time:	2024-01-11T11:03:01Z

@<SCITEGIC>ROOT_PROPERTY
Ligand:MaximumNumberOfAtoms
SciTegic.value.IntegerValue
100

@<SCITEGIC>ROOT_PROPERTY
Ligand:HydrogenAtomsCountTowardsMaximum
SciTegic.value.BooleanValue
FALSE

@<TRIPOS>MOLECULE
methiothepin
   24    27     0 0 0
SMALL
USER_CHARGES


@<TRIPOS>ATOM
      1 C1          -16.211300  -11.416000   -0.287100 C.2      1 SUBUNIT    0.0012
      2 C2          -15.880600  -10.616900    0.803300 C.2      1 SUBUNIT    0.0004
      3 C3          -14.624400  -10.015500    0.857200 C.2      1 SUBUNIT    0.0048
      4 C4          -13.666000  -10.187300   -0.153500 C.2      1 SUBUNIT   -0.0321
      5 C5          -14.014200  -10.995500   -1.249100 C.2      1 SUBUNIT    0.0155
      6 S6          -12.936700  -11.358100   -2.614700 S.3      1 SUBUNIT   -0.0894
      7 C7          -11.601900  -12.000200   -1.647800 C.2      1 SUBUNIT    0.0171
      8 C8          -10.856500  -11.135000   -0.843500 C.2      1 SUBUNIT   -0.0154
      9 C9          -11.155700   -9.638600   -0.861200 C.3      1 SUBUNIT    0.0923
     10 C10         -12.364200   -9.426600    0.073500 C.3      1 SUBUNIT    0.0604
     11 N11          -9.963200   -8.848400   -0.515100 N.3      1 SUBUNIT   -0.2934
     12 C12         -10.223100   -7.436200   -0.264500 C.3      1 SUBUNIT    0.1004
     13 C13          -8.933300   -6.674500    0.093200 C.3      1 SUBUNIT    0.0995
     14 N14          -7.932700   -6.801800   -0.954300 N.3      1 SUBUNIT   -0.3038
     15 C15          -7.660400   -8.210700   -1.189800 C.3      1 SUBUNIT    0.0995
     16 C16          -8.952000   -8.954000   -1.566900 C.3      1 SUBUNIT    0.1004
     17 C17         -11.339100  -13.369900   -1.648700 C.2      1 SUBUNIT    0.0167
     18 C18         -10.332100  -13.894500   -0.838900 C.2      1 SUBUNIT    0.0160
     19 C19          -9.585200  -13.055900   -0.007500 C.2      1 SUBUNIT    0.0074
     20 C20          -9.869800  -11.685900   -0.017100 C.2      1 SUBUNIT    0.0212
     21 S21          -8.301300  -13.613600    1.081500 S.3      1 SUBUNIT   -0.1295
     22 C22          -7.960400  -15.287400    0.486600 C.3      1 SUBUNIT    0.0906
     23 C23         -15.276200  -11.598900   -1.303800 C.2      1 SUBUNIT    0.0155
     24 C24          -6.717200   -6.072000   -0.623100 C.3      1 SUBUNIT    0.1049
@<TRIPOS>BOND
     1    1   23 2
     2    1    2 1
     3    2    3 2
     4    3    4 1
     5    4    5 2
     6    4   10 1
     7    5   23 1
     8    5    6 1
     9    6    7 1
    10    7    8 2
    11    7   17 1
    12    8    9 1
    13    8   20 1
    14    9   10 1
    15    9   11 1
    16   11   12 1
    17   11   16 1
    18   12   13 1
    19   13   14 1
    20   14   15 1
    21   14   24 1
    22   15   16 1
    23   17   18 2
    24   18   19 1
    25   19   20 2
    26   19   21 1
    27   21   22 1
@<SCITEGIC>ATOM_PROPERTY
Formal Charge
SciTegic.value.StringValue
1 0
2 0
3 0
4 0
5 0
6 0
7 0
8 0
9 0
10 0
11 0
12 0
13 0
14 0
15 0
16 0
17 0
18 0
19 0
20 0
21 0
22 0
23 0
24 0

@<SCITEGIC>ATOM_PROPERTY
pdb_tempFactor
SciTegic.value.DoubleValue
1 0.00
2 0.00
3 0.00
4 0.00
5 0.00
6 0.00
7 0.00
8 0.00
9 0.00
10 0.00
11 0.00
12 0.00
13 0.00
14 0.00
15 0.00
16 0.00
17 0.00
18 0.00
19 0.00
20 0.00
21 0.00
22 0.00
23 0.00
24 0.00

@<SCITEGIC>ATOM_PROPERTY
pdb_occupancy
SciTegic.value.DoubleValue
1 1.00
2 1.00
3 1.00
4 1.00
5 1.00
6 1.00
7 1.00
8 1.00
9 1.00
10 1.00
11 1.00
12 1.00
13 1.00
14 1.00
15 1.00
16 1.00
17 1.00
18 1.00
19 1.00
20 1.00
21 1.00
22 1.00
23 1.00
24 1.00

#	copyright drugdesign.org
#	Creation time:	2024-01-11T11:03:01Z

@<SCITEGIC>ROOT_PROPERTY
Ligand:MaximumNumberOfAtoms
SciTegic.value.IntegerValue
100

@<SCITEGIC>ROOT_PROPERTY
Ligand:HydrogenAtomsCountTowardsMaximum
SciTegic.value.BooleanValue
FALSE

@<TRIPOS>MOLECULE
buspirone
   28    31     0 0 0
SMALL
USER_CHARGES


@<TRIPOS>ATOM
      1 O1           -2.815460   -6.325762   -0.842522 O.2      1 SUBUNIT   -0.2770
      2 C2          -10.528100  -13.954200   -0.909500 C.2      1 SUBUNIT    0.0403
      3 C3           -9.232500  -13.658800   -0.505700 C.2      1 SUBUNIT    0.1160
      4 N4           -8.641200  -12.309400   -0.523200 N.2      1 SUBUNIT   -0.2265
      5 C5           -9.582400  -11.184800   -1.050200 C.2      1 SUBUNIT    0.2027
      6 N6          -11.035700  -11.537900   -1.488400 N.2      1 SUBUNIT   -0.2265
      7 N7           -9.147500   -9.908500   -1.110400 N.pl3    1 SUBUNIT   -0.2405
      8 C8           -7.863900   -9.584500   -0.501800 C.3      1 SUBUNIT    0.1086
      9 C9           -7.300200   -8.260300   -1.036000 C.3      1 SUBUNIT    0.1003
     10 N10          -8.302900   -7.204400   -1.043000 N.3      1 SUBUNIT   -0.3007
     11 C11          -9.415900   -7.586500   -1.903700 C.3      1 SUBUNIT    0.1003
     12 C12         -10.113300   -8.858500   -1.406100 C.3      1 SUBUNIT    0.1086
     13 C13          -7.755900   -5.915900   -1.471700 C.3      1 SUBUNIT    0.0844
     14 C14          -6.664100   -5.342900   -0.546500 C.3      1 SUBUNIT    0.0171
     15 C15          -5.518792   -4.693888   -1.345385 C.3      1 SUBUNIT    0.0211
     16 C16          -4.420562   -4.133194   -0.424999 C.3      1 SUBUNIT    0.1170
     17 N17          -3.139349   -4.084515   -1.122257 N.am     1 SUBUNIT   -0.2418
     18 C18          -2.646592   -2.850928   -1.538499 C.2      1 SUBUNIT    0.2213
     19 C19          -1.299786   -2.781775   -2.240687 C.3      1 SUBUNIT    0.1052
     20 C20          -2.408821   -5.259293   -1.272761 C.2      1 SUBUNIT    0.2213
     21 C21         -11.388600  -12.967700   -1.374300 C.2      1 SUBUNIT    0.1160
     22 O22          -3.274784   -1.820323   -1.360469 O.2      1 SUBUNIT   -0.2770
     23 C23          -0.341331   -3.887551   -1.771543 C.3      1 SUBUNIT   -0.0126
     24 C24          -1.080645   -5.214612   -2.009136 C.3      1 SUBUNIT    0.1052
     25 C25           0.994187   -3.846760   -2.551429 C.3      1 SUBUNIT    0.0079
     26 C26           2.086386   -4.084783   -1.499405 C.3      1 SUBUNIT    0.0006
     27 C27           1.538652   -3.328403   -0.283184 C.3      1 SUBUNIT    0.0006
     28 C28           0.051981   -3.715123   -0.283360 C.3      1 SUBUNIT    0.0079
@<TRIPOS>BOND
     1    1   20 2
     2    2   21 2
     3    2    3 1
     4    3    4 2
     5    4    5 1
     6    5    6 2
     7    5    7 1
     8    6   21 1
     9    7    8 1
    10    7   12 1
    11    8    9 1
    12    9   10 1
    13   10   11 1
    14   10   13 1
    15   11   12 1
    16   13   14 1
    17   14   15 1
    18   15   16 1
    19   16   17 1
    20   17   18 1
    21   17   20 1
    22   18   19 1
    23   18   22 2
    24   19   23 1
    25   20   24 1
    26   23   24 1
    27   23   25 1
    28   23   28 1
    29   25   26 1
    30   26   27 1
    31   27   28 1
@<SCITEGIC>ATOM_PROPERTY
Formal Charge
SciTegic.value.StringValue
1 0
2 0
3 0
4 0
5 0
6 0
7 0
8 0
9 0
10 0
11 0
12 0
13 0
14 0
15 0
16 0
17 0
18 0
19 0
20 0
21 0
22 0
23 0
24 0
25 0
26 0
27 0
28 0

@<SCITEGIC>ATOM_PROPERTY
pdb_tempFactor
SciTegic.value.DoubleValue
1 0.00
2 0.00
3 0.00
4 0.00
5 0.00
6 0.00
7 0.00
8 0.00
9 0.00
10 0.00
11 0.00
12 0.00
13 0.00
14 0.00
15 0.00
16 0.00
17 0.00
18 0.00
19 0.00
20 0.00
21 0.00
22 0.00
23 0.00
24 0.00
25 0.00
26 0.00
27 0.00
28 0.00

@<SCITEGIC>ATOM_PROPERTY
pdb_occupancy
SciTegic.value.DoubleValue
1 1.00
2 1.00
3 1.00
4 1.00
5 1.00
6 1.00
7 1.00
8 1.00
9 1.00
10 1.00
11 1.00
12 1.00
13 1.00
14 1.00
15 1.00
16 1.00
17 1.00
18 1.00
19 1.00
20 1.00
21 1.00
22 1.00
23 1.00
24 1.00
25 1.00
26 1.00
27 1.00
28 1.00

#	copyright drugdesign.org
#	Creation time:	2024-01-11T11:03:01Z

@<SCITEGIC>ROOT_PROPERTY
Ligand:MaximumNumberOfAtoms
SciTegic.value.IntegerValue
100

@<SCITEGIC>ROOT_PROPERTY
Ligand:HydrogenAtomsCountTowardsMaximum
SciTegic.value.BooleanValue
FALSE

@<TRIPOS>MOLECULE
spiperone
   29    32     0 0 0
SMALL
USER_CHARGES


@<TRIPOS>ATOM
      1 C1           -9.394400   -9.013100   -2.564200 C.3      1 SUBUNIT    0.0483
      2 C2           -7.453400   -6.226000   -0.865100 C.3      1 SUBUNIT    0.0847
      3 C3           -6.004300   -6.595300   -1.145101 C.3      1 SUBUNIT    0.0237
      4 C4           -5.067639   -5.430139   -0.854416 C.3      1 SUBUNIT    0.0822
      5 C5           -3.637556   -5.807079   -0.887351 C.2      1 SUBUNIT    0.1624
      6 C6           -2.617601   -4.758494   -0.720850 C.2      1 SUBUNIT    0.0177
      7 C7           -2.905932   -3.409192   -0.788914 C.2      1 SUBUNIT    0.0146
      8 C8           -1.948809   -2.428705   -0.681877 C.2      1 SUBUNIT    0.0398
      9 C9           -0.630634   -2.866174   -0.427924 C.2      1 SUBUNIT    0.1228
     10 C10          -0.310809   -4.194990   -0.340974 C.2      1 SUBUNIT    0.0398
     11 C11         -12.674200   -9.995800   -2.863500 C.3      1 SUBUNIT    0.1981
     12 C12          -1.296606   -5.145681   -0.497729 C.2      1 SUBUNIT    0.0146
     13 C13         -11.132900  -11.353800   -1.556400 C.2      1 SUBUNIT    0.0195
     14 C14         -11.752600  -12.486700   -2.139600 C.2      1 SUBUNIT    0.0200
     15 C15         -11.359600  -13.773000   -1.747500 C.2      1 SUBUNIT    0.0016
     16 C16         -10.364800  -13.963600   -0.841500 C.2      1 SUBUNIT    0.0001
     17 C17          -9.754700  -12.873600   -0.264800 C.2      1 SUBUNIT    0.0016
     18 C18         -10.128000  -11.574300   -0.612300 C.2      1 SUBUNIT    0.0200
     19 C19         -11.654300   -7.911100   -2.755000 C.2      1 SUBUNIT    0.2337
     20 C20         -10.760900   -8.836600   -1.915100 C.3      1 SUBUNIT    0.1060
     21 C21         -10.616500   -8.208500   -0.515100 C.3      1 SUBUNIT    0.0483
     22 C22          -9.688000   -7.025400   -0.491700 C.3      1 SUBUNIT    0.0867
     23 C23          -8.493500   -7.786200   -2.424600 C.3      1 SUBUNIT    0.0867
     24 F24           0.333188   -1.986528   -0.270371 F        1 SUBUNIT   -0.2070
     25 N25         -11.583800  -10.078000   -1.903700 N.pl3    1 SUBUNIT   -0.2435
     26 N26         -12.711700   -8.585600   -3.162600 N.am     1 SUBUNIT   -0.1498
     27 N27          -8.368900   -7.379100   -1.043000 N.3      1 SUBUNIT   -0.3031
     28 O28         -11.395600   -6.728800   -3.015600 O.2      1 SUBUNIT   -0.2755
     29 O29          -3.286529   -6.981348   -1.051729 O.2      1 SUBUNIT   -0.2942
@<TRIPOS>BOND
     1    1   20 1
     2    1   23 1
     3    2    3 1
     4    2   27 1
     5    3    4 1
     6    4    5 1
     7    5    6 1
     8    5   29 2
     9    6    7 2
    10    6   12 1
    11    7    8 1
    12    8    9 2
    13    9   10 1
    14    9   24 1
    15   10   12 2
    16   11   25 1
    17   11   26 1
    18   13   14 2
    19   13   18 1
    20   13   25 1
    21   14   15 1
    22   15   16 2
    23   16   17 1
    24   17   18 2
    25   19   20 1
    26   19   26 1
    27   19   28 2
    28   20   21 1
    29   20   25 1
    30   21   22 1
    31   22   27 1
    32   23   27 1
@<SCITEGIC>ATOM_PROPERTY
Formal Charge
SciTegic.value.StringValue
1 0
2 0
3 0
4 0
5 0
6 0
7 0
8 0
9 0
10 0
11 0
12 0
13 0
14 0
15 0
16 0
17 0
18 0
19 0
20 0
21 0
22 0
23 0
24 0
25 0
26 0
27 0
28 0
29 0

@<SCITEGIC>ATOM_PROPERTY
pdb_tempFactor
SciTegic.value.DoubleValue
1 0.00
2 0.00
3 0.00
4 0.00
5 0.00
6 0.00
7 0.00
8 0.00
9 0.00
10 0.00
11 0.00
12 0.00
13 0.00
14 0.00
15 0.00
16 0.00
17 0.00
18 0.00
19 0.00
20 0.00
21 0.00
22 0.00
23 0.00
24 0.00
25 0.00
26 0.00
27 0.00
28 0.00
29 0.00

@<SCITEGIC>ATOM_PROPERTY
pdb_occupancy
SciTegic.value.DoubleValue
1 1.00
2 1.00
3 1.00
4 1.00
5 1.00
6 1.00
7 1.00
8 1.00
9 1.00
10 1.00
11 1.00
12 1.00
13 1.00
14 1.00
15 1.00
16 1.00
17 1.00
18 1.00
19 1.00
20 1.00
21 1.00
22 1.00
23 1.00
24 1.00
25 1.00
26 1.00
27 1.00
28 1.00
29 1.00

#	copyright drugdesign.org
#	Creation time:	2024-01-11T11:03:01Z

@<SCITEGIC>ROOT_PROPERTY
Ligand:MaximumNumberOfAtoms
SciTegic.value.IntegerValue
100

@<SCITEGIC>ROOT_PROPERTY
Ligand:HydrogenAtomsCountTowardsMaximum
SciTegic.value.BooleanValue
FALSE

@<TRIPOS>MOLECULE
propranolol
   21    22     0 0 0
SMALL
USER_CHARGES


@<TRIPOS>ATOM
      1 C1           -9.515000  -12.950700   -0.013900 C.2      1 SUBUNIT   -0.0158
      2 C2           -9.737600  -11.565500    0.010000 C.2      1 SUBUNIT    0.0120
      3 C3           -8.976900  -10.707200    0.829800 C.2      1 SUBUNIT    0.0829
      4 C4           -7.983000  -11.305100    1.621200 C.2      1 SUBUNIT    0.0339
      5 C5           -7.750200  -12.680200    1.607600 C.2      1 SUBUNIT    0.0034
      6 C6           -8.516600  -13.507600    0.789500 C.2      1 SUBUNIT    0.0087
      7 C7          -11.516400  -11.866700   -1.633600 C.2      1 SUBUNIT    0.0008
      8 C8          -10.746500  -11.041100   -0.811300 C.2      1 SUBUNIT    0.0113
      9 C9          -10.286600  -13.779000   -0.838100 C.2      1 SUBUNIT    0.0086
     10 C10         -11.287400  -13.241800   -1.648300 C.2      1 SUBUNIT    0.0007
     11 O11          -9.239700   -9.357200    0.812500 O.3      1 SUBUNIT   -0.3427
     12 C12          -8.443500   -8.482100    1.589900 C.3      1 SUBUNIT    0.2006
     13 C13          -8.924500   -7.044100    1.362100 C.3      1 SUBUNIT    0.1541
     14 C14          -9.178300   -6.675600   -0.116600 C.3      1 SUBUNIT    0.1149
     15 N15          -8.063700   -7.050900   -0.969300 N.3      1 SUBUNIT   -0.3118
     16 H16          -7.944900   -8.066000   -0.919900 H        1 SUBUNIT    0.1225
     17 C17          -8.222400   -6.685800   -2.372300 C.3      1 SUBUNIT    0.0471
     18 C18          -8.276500   -5.161200   -2.588900 C.3      1 SUBUNIT    0.0238
     19 C19          -7.042800   -7.280800   -3.169500 C.3      1 SUBUNIT    0.0238
     20 O20         -10.127300   -6.837900    2.079200 O.3      1 SUBUNIT   -0.3893
     21 H21          -9.934600   -6.782400    3.002500 H        1 SUBUNIT    0.2106
@<TRIPOS>BOND
     1    1    2 2
     2    1    6 1
     3    1    9 1
     4    2    3 1
     5    2    8 1
     6    3    4 2
     7    3   11 1
     8    4    5 1
     9    5    6 2
    10    7    8 2
    11    7   10 1
    12    9   10 2
    13   11   12 1
    14   12   13 1
    15   13   14 1
    16   13   20 1
    17   14   15 1
    18   15   17 1
    19   15   16 1
    20   17   19 1
    21   17   18 1
    22   20   21 1
@<SCITEGIC>ATOM_PROPERTY
Formal Charge
SciTegic.value.StringValue
1 0
2 0
3 0
4 0
5 0
6 0
7 0
8 0
9 0
10 0
11 0
12 0
13 0
14 0
15 0
16 0
17 0
18 0
19 0
20 0
21 0

@<SCITEGIC>ATOM_PROPERTY
pdb_tempFactor
SciTegic.value.DoubleValue
1 0.00
2 0.00
3 0.00
4 0.00
5 0.00
6 0.00
7 0.00
8 0.00
9 0.00
10 0.00
11 0.00
12 0.00
13 0.00
14 0.00
15 0.00
16 0.00
17 0.00
18 0.00
19 0.00
20 0.00
21 0.00

@<SCITEGIC>ATOM_PROPERTY
pdb_occupancy
SciTegic.value.DoubleValue
1 1.00
2 1.00
3 1.00
4 1.00
5 1.00
6 1.00
7 1.00
8 1.00
9 1.00
10 1.00
11 1.00
12 1.00
13 1.00
14 1.00
15 1.00
16 1.00
17 1.00
18 1.00
19 1.00
20 1.00
21 1.00

