#	Copyright: drugdesign.org
#	Creation time:	2024-01-11T11:02:14Z

@<SCITEGIC>ROOT_PROPERTY
Ligand:MaximumNumberOfAtoms
SciTegic.value.IntegerValue
100

@<SCITEGIC>ROOT_PROPERTY
Ligand:HydrogenAtomsCountTowardsMaximum
SciTegic.value.BooleanValue
FALSE

@<TRIPOS>MOLECULE
1hvr.mol
   37    41     0 0 0
SMALL
USER_CHARGES


@<TRIPOS>ATOM
      1 N1            3.988200   -0.933400    0.090200 N.3      1 SUBUNIT    0.3045
      2 N3            4.559700   -1.408300    1.237200 N.3      1 SUBUNIT   -0.2752
      3 N4            4.667000   -0.817000   -1.095300 N.3      1 SUBUNIT   -0.2752
      4 C5            3.621000   -1.855100    2.274700 C.3      1 SUBUNIT    0.1453
      5 C6            5.991900   -1.256400    1.570100 C.3      1 SUBUNIT    0.1136
      6 C7            5.853500   -1.597600   -1.484000 C.3      1 SUBUNIT    0.1136
      7 C8            4.065700    0.022700   -2.134900 C.3      1 SUBUNIT    0.1453
      8 C9            3.916936   -3.096971    3.055605 C.ar     1 SUBUNIT   -0.0299
      9 C10           6.991000   -2.014200    0.705300 C.2      1 SUBUNIT    0.1655
     10 C11           6.301800    0.255300    1.823900 C.3      1 SUBUNIT    0.0608
     11 C12           7.133800   -1.403700   -0.681400 C.3      1 SUBUNIT    0.1655
     12 C13           5.402800   -3.056700   -1.719600 C.3      1 SUBUNIT    0.0608
     13 C14           4.942336    0.949029   -2.964995 C.ar     1 SUBUNIT   -0.0299
     14 C15           4.309372   -4.320142    2.428210 C.ar     1 SUBUNIT    0.0058
     15 C16           3.659236   -3.016371    4.440505 C.ar     1 SUBUNIT    0.0137
     16 C18           5.656700    0.759800    3.110500 C.ar     1 SUBUNIT   -0.0460
     17 C20           4.606636   -3.187371   -3.018095 C.ar     1 SUBUNIT   -0.0460
     18 C21           4.772336    0.843329   -4.357995 C.ar     1 SUBUNIT    0.0137
     19 C22           5.767236    1.946629   -2.385395 C.ar     1 SUBUNIT    0.0058
     20 C23           4.414736   -5.494271    3.221605 C.ar     1 SUBUNIT    0.0089
     21 C24           3.766636   -4.181371    5.217905 C.ar     1 SUBUNIT   -0.0180
     22 C26           4.422700    1.469600    3.061000 C.ar     1 SUBUNIT    0.0036
     23 C27           6.228500    0.430300    4.366200 C.ar     1 SUBUNIT    0.0036
     24 C29           5.243836   -3.038071   -4.278395 C.ar     1 SUBUNIT    0.0036
     25 C30           3.219537   -3.452371   -2.934195 C.ar     1 SUBUNIT    0.0036
     26 C31           5.415436    1.757929   -5.188995 C.ar     1 SUBUNIT   -0.0180
     27 C32           6.411136    2.873429   -3.208995 C.ar     1 SUBUNIT    0.0089
     28 C33           4.135636   -5.421671    4.609305 C.ar     1 SUBUNIT   -0.0184
     29 C35           3.750400    1.821700    4.259100 C.ar     1 SUBUNIT    0.0003
     30 C36           5.566100    0.791400    5.557200 C.ar     1 SUBUNIT    0.0003
     31 C37           4.472636   -3.152271   -5.458595 C.ar     1 SUBUNIT    0.0003
     32 C38           2.449836   -3.571971   -4.113495 C.ar     1 SUBUNIT    0.0003
     33 C40           6.236436    2.781729   -4.614995 C.ar     1 SUBUNIT   -0.0184
     34 C43           4.327200    1.477700    5.498400 C.ar     1 SUBUNIT    0.0000
     35 C44           3.076736   -3.418071   -5.365195 C.ar     1 SUBUNIT    0.0000
     36 O75           8.329345   -1.991747    1.382301 O.2      1 SUBUNIT    0.0000
     37 H77           3.027481   -0.657168    0.116923 H        1 SUBUNIT    0.0000
@<TRIPOS>BOND
     1    1    2 1
     2    1    3 1
     3    2    4 1
     4    2    5 1
     5    3    6 1
     6    3    7 1
     7    4    8 1
     8    5    9 1
     9    5   10 1
    10    6   11 1
    11    6   12 1
    12    7   13 1
    13    8   14 ar
    14    8   15 ar
    15    9   11 1
    16   10   16 1
    17   12   17 1
    18   13   18 ar
    19   13   19 ar
    20   14   20 ar
    21   15   21 ar
    22   16   22 ar
    23   16   23 ar
    24   17   24 ar
    25   17   25 ar
    26   18   26 ar
    27   19   27 ar
    28   20   28 ar
    29   21   28 ar
    30   22   29 ar
    31   23   30 ar
    32   24   31 ar
    33   25   32 ar
    34   26   33 ar
    35   27   33 ar
    36   29   34 ar
    37   30   34 ar
    38   31   35 ar
    39   32   35 ar
    40    9   36 2
    41    1   37 1
@<SCITEGIC>ATOM_PROPERTY
Formal Charge
SciTegic.value.StringValue
1 0
2 0
3 0
4 0
5 0
6 0
7 0
8 0
9 0
10 0
11 0
12 0
13 0
14 0
15 0
16 0
17 0
18 0
19 0
20 0
21 0
22 0
23 0
24 0
25 0
26 0
27 0
28 0
29 0
30 0
31 0
32 0
33 0
34 0
35 0
36 0
37 0

@<SCITEGIC>ATOM_PROPERTY
pdb_tempFactor
SciTegic.value.DoubleValue
1 0.00
2 0.00
3 0.00
4 0.00
5 0.00
6 0.00
7 0.00
8 0.00
9 0.00
10 0.00
11 0.00
12 0.00
13 0.00
14 0.00
15 0.00
16 0.00
17 0.00
18 0.00
19 0.00
20 0.00
21 0.00
22 0.00
23 0.00
24 0.00
25 0.00
26 0.00
27 0.00
28 0.00
29 0.00
30 0.00
31 0.00
32 0.00
33 0.00
34 0.00
35 0.00
36 0.00
37 0.00

@<SCITEGIC>ATOM_PROPERTY
pdb_occupancy
SciTegic.value.DoubleValue
1 1.00
2 1.00
3 1.00
4 1.00
5 1.00
6 1.00
7 1.00
8 1.00
9 1.00
10 1.00
11 1.00
12 1.00
13 1.00
14 1.00
15 1.00
16 1.00
17 1.00
18 1.00
19 1.00
20 1.00
21 1.00
22 1.00
23 1.00
24 1.00
25 1.00
26 1.00
27 1.00
28 1.00
29 1.00
30 1.00
31 1.00
32 1.00
33 1.00
34 1.00
35 1.00
36 1.00
37 1.00

