#	Copyright: drugdesign.org
#	Creation time:	2024-01-11T22:47:55Z

@<TRIPOS>MOLECULE
null.sd
   15    15     0 0 0
SMALL
USER_CHARGES


@<TRIPOS>ATOM
      1 C1           12.033106    3.380736    5.288460 C.ar     1 SUBUNIT    0.0064
      2 C2           13.225884    3.812527    4.698535 C.ar     1 SUBUNIT   -0.0440
      3 C3           14.071854    2.861610    4.115169 C.ar     1 SUBUNIT    0.0393
      4 C4           13.734686    1.504105    4.115105 C.ar     1 SUBUNIT    0.1015
      5 C5           12.538361    1.084418    4.705719 C.ar     1 SUBUNIT    0.1013
      6 C6           11.690687    2.028249    5.291909 C.ar     1 SUBUNIT    0.0360
      7 C7           13.595179    5.277877    4.700815 C.3      1 SUBUNIT    0.0504
      8 C8           15.046681    5.507276    5.144777 C.3      1 SUBUNIT    0.0821
      9 N9           15.424965    6.916453    5.141952 N.3      1 SUBUNIT   -0.3301
     10 H10          16.405489    7.051955    5.374960 H        1 SUBUNIT    0.1184
     11 H11          14.895926    7.464637    5.814936 H        1 SUBUNIT    0.1184
     12 O12          14.554464    0.576478    3.547030 O.3      1 SUBUNIT   -0.3582
     13 H13          15.363564    0.952836    3.162218 H        1 SUBUNIT    0.2183
     14 O14          12.221156   -0.239986    4.699226 O.3      1 SUBUNIT   -0.3582
     15 H15          11.374079   -0.440558    5.131391 H        1 SUBUNIT    0.2183
@<TRIPOS>BOND
     1    1    2 ar
     2    1    6 ar
     3    2    3 ar
     4    2    7 1
     5    3    4 ar
     6    4    5 ar
     7    4   12 1
     8    5    6 ar
     9    5   14 1
    10    7    8 1
    11    8    9 1
    12    9   10 1
    13    9   11 1
    14   12   13 1
    15   14   15 1
@<SCITEGIC>ATOM_PROPERTY
Formal Charge
SciTegic.value.StringValue
1 0
2 0
3 0
4 0
5 0
6 0
7 0
8 0
9 0
10 0
11 0
12 0
13 0
14 0
15 0

@<SCITEGIC>ATOM_PROPERTY
pdb_tempFactor
SciTegic.value.DoubleValue
1 0.00
2 0.00
3 0.00
4 0.00
5 0.00
6 0.00
7 0.00
8 0.00
9 0.00
10 0.00
11 0.00
12 0.00
13 0.00
14 0.00
15 0.00

@<SCITEGIC>ATOM_PROPERTY
pdb_occupancy
SciTegic.value.DoubleValue
1 1.00
2 1.00
3 1.00
4 1.00
5 1.00
6 1.00
7 1.00
8 1.00
9 1.00
10 1.00
11 1.00
12 1.00
13 1.00
14 1.00
15 1.00

#	Copyright: drugdesign.org
#	Creation time:	2024-01-11T22:47:55Z

@<TRIPOS>MOLECULE
null.sd
   22    23     0 0 0
SMALL
USER_CHARGES


@<TRIPOS>ATOM
      1 Cl1          11.264961    4.509660    5.796155 Cl       1 SUBUNIT   -0.0842
      2 N2           15.456939    6.780085    5.122334 N.3      1 SUBUNIT   -0.3093
      3 C3           12.646277    0.987218    4.620079 C.ar     1 SUBUNIT    0.0184
      4 C4           13.380675    3.677903    4.365342 C.ar     1 SUBUNIT    0.0418
      5 C5           16.178305    0.878397   -0.441608 C.ar     1 SUBUNIT    0.0013
      6 C6           15.620935    2.326243    1.890118 C.ar     1 SUBUNIT    0.0358
      7 C7           16.705694    6.042443    5.008811 C.3      1 SUBUNIT    0.0849
      8 S8           14.907151    0.097113    3.313753 S.3      1 SUBUNIT   -0.0867
      9 C9           12.237980    3.267350    5.068332 C.ar     1 SUBUNIT    0.0422
     10 C10          13.828718    1.334187    3.915099 C.ar     1 SUBUNIT    0.0309
     11 C11          15.439057    0.943920    1.880005 C.ar     1 SUBUNIT    0.0308
     12 C12          16.338995    2.261569   -0.432533 C.ar     1 SUBUNIT    0.0017
     13 C13          15.942542    4.382450    3.284122 C.3      1 SUBUNIT    0.0972
     14 C14          14.778133    6.527970    6.422772 C.3      1 SUBUNIT    0.1045
     15 N15          15.365541    2.996186    3.110100 N.pl3    1 SUBUNIT   -0.2428
     16 C16          11.835033    1.945921    5.193496 C.ar     1 SUBUNIT    0.0216
     17 C17          14.193960    2.681061    3.813219 C.ar     1 SUBUNIT    0.0373
     18 C18          15.720061    0.208264    0.683639 C.ar     1 SUBUNIT    0.0169
     19 C19          16.038805    2.995927    0.731646 C.ar     1 SUBUNIT    0.0215
     20 C20          16.487703    4.538918    4.706380 C.3      1 SUBUNIT    0.0318
     21 C21          15.736624    8.207302    4.975043 C.3      1 SUBUNIT    0.1045
     22 C45          17.033907    4.073464    0.306892 C.3      1 SUBUNIT    0.0000
@<TRIPOS>BOND
     1    1    9 1
     2    2    7 1
     3    2   14 1
     4    2   21 1
     5    3   10 ar
     6    3   16 ar
     7    4    9 ar
     8    4   17 ar
     9    5   12 ar
    10    5   18 ar
    11    6   11 ar
    12    6   15 1
    13    6   19 ar
    14    7   20 1
    15    8   10 1
    16    8   11 1
    17    9   16 ar
    18   10   17 ar
    19   11   18 ar
    20   12   19 ar
    21   13   15 1
    22   13   20 1
    23   15   17 1
@<SCITEGIC>ATOM_PROPERTY
Formal Charge
SciTegic.value.StringValue
1 0
2 0
3 0
4 0
5 0
6 0
7 0
8 0
9 0
10 0
11 0
12 0
13 0
14 0
15 0
16 0
17 0
18 0
19 0
20 0
21 0
22 0

@<SCITEGIC>ATOM_PROPERTY
pdb_tempFactor
SciTegic.value.DoubleValue
1 0.00
2 0.00
3 0.00
4 0.00
5 0.00
6 0.00
7 0.00
8 0.00
9 0.00
10 0.00
11 0.00
12 0.00
13 0.00
14 0.00
15 0.00
16 0.00
17 0.00
18 0.00
19 0.00
20 0.00
21 0.00
22 0.00

@<SCITEGIC>ATOM_PROPERTY
pdb_occupancy
SciTegic.value.DoubleValue
1 1.00
2 1.00
3 1.00
4 1.00
5 1.00
6 1.00
7 1.00
8 1.00
9 1.00
10 1.00
11 1.00
12 1.00
13 1.00
14 1.00
15 1.00
16 1.00
17 1.00
18 1.00
19 1.00
20 1.00
21 1.00
22 1.00

