#	Copyright: drugdesign.org
#	Creation time:	2024-01-11T11:02:16Z

@<SCITEGIC>ROOT_PROPERTY
Ligand:MaximumNumberOfAtoms
SciTegic.value.IntegerValue
100

@<SCITEGIC>ROOT_PROPERTY
Ligand:HydrogenAtomsCountTowardsMaximum
SciTegic.value.BooleanValue
FALSE

@<TRIPOS>MOLECULE
moleculeCO
   20    22     0 0 0
SMALL
USER_CHARGES


@<TRIPOS>ATOM
      1 C1            1.590800    0.974100   -0.361000 C.2      1 SUBUNIT   -0.0369
      2 C2            1.835700    2.251300   -0.705100 C.2      1 SUBUNIT    0.0512
      3 C3            0.880900    3.036500   -1.515500 C.2      1 SUBUNIT    0.1558
      4 C4           -0.414600    2.367400   -1.938300 C.3      1 SUBUNIT    0.0843
      5 C5           -0.852100    1.274200   -0.951300 C.3      1 SUBUNIT    0.0054
      6 C6            0.302400    0.281700   -0.741700 C.3      1 SUBUNIT    0.0403
      7 O7            1.128400    4.176800   -1.843000 O.2      1 SUBUNIT   -0.2948
      8 C8            2.590500    0.238200    0.441800 C.ar     1 SUBUNIT   -0.0223
      9 C9            3.959900    0.378300    0.193300 C.ar     1 SUBUNIT    0.0082
     10 C10           4.896200   -0.313800    0.963800 C.ar     1 SUBUNIT    0.0006
     11 C11           4.471000   -1.153200    1.994100 C.ar     1 SUBUNIT    0.0000
     12 C12           3.107200   -1.295500    2.251800 C.ar     1 SUBUNIT    0.0006
     13 C13           2.173700   -0.601400    1.479900 C.ar     1 SUBUNIT    0.0082
     14 C14          -2.137300    0.576600   -1.440400 C.3      1 SUBUNIT    0.0395
     15 C15          -2.642100   -0.455100   -0.455500 C.ar     1 SUBUNIT   -0.0477
     16 C16          -2.038500   -1.713300   -0.360800 C.ar     1 SUBUNIT    0.0035
     17 C17          -2.504300   -2.657900    0.555700 C.ar     1 SUBUNIT    0.0003
     18 C18          -3.581400   -2.352000    1.388300 C.ar     1 SUBUNIT    0.0000
     19 C19          -4.189200   -1.099000    1.301500 C.ar     1 SUBUNIT    0.0003
     20 C20          -3.720200   -0.157000    0.384100 C.ar     1 SUBUNIT    0.0035
@<TRIPOS>BOND
     1    1    2 2
     2    1    6 1
     3    1    8 1
     4    2    3 1
     5    3    4 1
     6    3    7 2
     7    4    5 1
     8    5    6 1
     9    5   14 1
    10    8    9 ar
    11    8   13 ar
    12    9   10 ar
    13   10   11 ar
    14   11   12 ar
    15   12   13 ar
    16   14   15 1
    17   15   16 ar
    18   15   20 ar
    19   16   17 ar
    20   17   18 ar
    21   18   19 ar
    22   19   20 ar
@<SCITEGIC>ATOM_PROPERTY
Formal Charge
SciTegic.value.StringValue
1 0
2 0
3 0
4 0
5 0
6 0
7 0
8 0
9 0
10 0
11 0
12 0
13 0
14 0
15 0
16 0
17 0
18 0
19 0
20 0

@<SCITEGIC>ATOM_PROPERTY
pdb_tempFactor
SciTegic.value.DoubleValue
1 0.00
2 0.00
3 0.00
4 0.00
5 0.00
6 0.00
7 0.00
8 0.00
9 0.00
10 0.00
11 0.00
12 0.00
13 0.00
14 0.00
15 0.00
16 0.00
17 0.00
18 0.00
19 0.00
20 0.00

@<SCITEGIC>ATOM_PROPERTY
pdb_occupancy
SciTegic.value.DoubleValue
1 1.00
2 1.00
3 1.00
4 1.00
5 1.00
6 1.00
7 1.00
8 1.00
9 1.00
10 1.00
11 1.00
12 1.00
13 1.00
14 1.00
15 1.00
16 1.00
17 1.00
18 1.00
19 1.00
20 1.00

#	Copyright: drugdesign.org
#	Creation time:	2024-01-11T11:02:16Z

@<SCITEGIC>ROOT_PROPERTY
Ligand:MaximumNumberOfAtoms
SciTegic.value.IntegerValue
100

@<SCITEGIC>ROOT_PROPERTY
Ligand:HydrogenAtomsCountTowardsMaximum
SciTegic.value.BooleanValue
FALSE

@<TRIPOS>MOLECULE
moleculeNH
   22    25     0 0 0
SMALL
USER_CHARGES


@<TRIPOS>ATOM
      1 C1           -1.803100    2.665200   -2.466200 C.ar     1 SUBUNIT    0.0014
      2 C2           -0.419500    2.719500   -2.277500 C.ar     1 SUBUNIT    0.0097
      3 C3            0.148200    1.769000   -1.436900 C.ar     1 SUBUNIT   -0.0051
      4 C4           -0.619400    0.795000   -0.805900 C.ar     1 SUBUNIT    0.0343
      5 C5           -1.998300    0.726500   -0.992100 C.ar     1 SUBUNIT    0.0006
      6 C6           -2.577800    1.686200   -1.832000 C.ar     1 SUBUNIT    0.0102
      7 N7            0.258100    0.059000   -0.045700 N.pl3    1 SUBUNIT   -0.2574
      8 C8            1.536100    1.555400   -1.022600 C.2      1 SUBUNIT    0.0302
      9 C9            1.556400    0.508200   -0.174000 C.2      1 SUBUNIT    0.0270
     10 C10           2.739200   -0.071400    0.502900 C.ar     1 SUBUNIT   -0.0073
     11 C11           2.577200   -1.067100    1.472900 C.ar     1 SUBUNIT    0.0095
     12 C12           3.686300   -1.619600    2.116600 C.ar     1 SUBUNIT    0.0007
     13 C13           4.971500   -1.182700    1.796300 C.ar     1 SUBUNIT    0.0000
     14 C14           5.141500   -0.191100    0.829700 C.ar     1 SUBUNIT    0.0007
     15 C15           4.031700    0.361300    0.187000 C.ar     1 SUBUNIT    0.0095
     16 C16          -2.811700   -0.333400   -0.308900 C.ar     1 SUBUNIT   -0.0167
     17 C17          -2.394100   -1.668400   -0.299800 C.ar     1 SUBUNIT    0.0086
     18 C18          -3.158300   -2.650000    0.333800 C.ar     1 SUBUNIT    0.0006
     19 C19          -4.354100   -2.306000    0.964400 C.ar     1 SUBUNIT    0.0000
     20 C20          -4.783000   -0.978300    0.954600 C.ar     1 SUBUNIT    0.0006
     21 C21          -4.016200    0.000000    0.318900 C.ar     1 SUBUNIT    0.0086
     22 H22          -0.030400   -0.709200    0.564200 H        1 SUBUNIT    0.1342
@<TRIPOS>BOND
     1    1    2 ar
     2    1    6 ar
     3    2    3 ar
     4    3    4 ar
     5    3    8 1
     6    4    5 ar
     7    4    7 1
     8    5    6 ar
     9    5   16 1
    10    7    9 1
    11    7   22 1
    12    8    9 2
    13    9   10 1
    14   10   11 ar
    15   10   15 ar
    16   11   12 ar
    17   12   13 ar
    18   13   14 ar
    19   14   15 ar
    20   16   17 ar
    21   16   21 ar
    22   17   18 ar
    23   18   19 ar
    24   19   20 ar
    25   20   21 ar
@<SCITEGIC>ATOM_PROPERTY
Formal Charge
SciTegic.value.StringValue
1 0
2 0
3 0
4 0
5 0
6 0
7 0
8 0
9 0
10 0
11 0
12 0
13 0
14 0
15 0
16 0
17 0
18 0
19 0
20 0
21 0
22 0

@<SCITEGIC>ATOM_PROPERTY
pdb_tempFactor
SciTegic.value.DoubleValue
1 0.00
2 0.00
3 0.00
4 0.00
5 0.00
6 0.00
7 0.00
8 0.00
9 0.00
10 0.00
11 0.00
12 0.00
13 0.00
14 0.00
15 0.00
16 0.00
17 0.00
18 0.00
19 0.00
20 0.00
21 0.00
22 0.00

@<SCITEGIC>ATOM_PROPERTY
pdb_occupancy
SciTegic.value.DoubleValue
1 1.00
2 1.00
3 1.00
4 1.00
5 1.00
6 1.00
7 1.00
8 1.00
9 1.00
10 1.00
11 1.00
12 1.00
13 1.00
14 1.00
15 1.00
16 1.00
17 1.00
18 1.00
19 1.00
20 1.00
21 1.00
22 1.00

