#	Copyright: drugdesign.org
#	Creation time:	2024-01-11T11:02:28Z

@<SCITEGIC>ROOT_PROPERTY
Ligand:MaximumNumberOfAtoms
SciTegic.value.IntegerValue
100

@<SCITEGIC>ROOT_PROPERTY
Ligand:HydrogenAtomsCountTowardsMaximum
SciTegic.value.BooleanValue
FALSE

@<TRIPOS>MOLECULE
1
   37    38     0 0 0
SMALL
USER_CHARGES


@<TRIPOS>ATOM
      1 N1            9.697300    3.144800   -3.185500 N.am     1 SUBUNIT   -0.3278
      2 N2            8.291500    2.970300    0.150800 N.am     1 SUBUNIT   -0.2910
      3 N3            4.879900    3.425400    0.959600 N.am     1 SUBUNIT   -0.3002
      4 N4            2.623700    4.771800    0.279600 N.3      1 SUBUNIT    0.2418
      5 O5            9.122100    4.866300   -1.820800 O.2      1 SUBUNIT   -0.2761
      6 O6            6.553400    2.219400   -1.165900 O.2      1 SUBUNIT   -0.2753
      7 O7            3.715000    1.687400    1.862000 O.2      1 SUBUNIT   -0.2731
      8 C8            9.373500    3.661900   -1.974000 C.2      1 SUBUNIT    0.2266
      9 C9            9.350100    2.653800   -0.812700 C.3      1 SUBUNIT    0.0908
     10 C10           6.996500    2.644400   -0.092100 C.2      1 SUBUNIT    0.2352
     11 C11           6.212700    2.870300    1.203800 C.3      1 SUBUNIT    0.1011
     12 C12           7.130000    3.761800    2.026700 C.3      1 SUBUNIT   -0.0099
     13 C13           8.564200    3.450300    1.543800 C.3      1 SUBUNIT    0.0170
     14 C14           3.748700    2.774600    1.293100 C.2      1 SUBUNIT    0.2538
     15 C15           2.465000    3.496000    0.920000 C.3      1 SUBUNIT    0.1513
     16 C16           2.317300    4.649200   -1.089600 C.3      1 SUBUNIT    0.0621
     17 C17           1.512600    3.322800   -1.407300 C.3      1 SUBUNIT   -0.0145
     18 C18           1.634800    2.626100   -0.061200 C.3      1 SUBUNIT   -0.0032
     19 H19           9.902700    2.145000   -3.264400 H        1 SUBUNIT    0.1455
     20 H20           9.735600    3.748600   -4.012200 H        1 SUBUNIT    0.1455
     21 H21           4.805500    4.346400    0.517100 H        1 SUBUNIT    0.1503
     22 H22           2.002700    5.461900    0.716200 H        1 SUBUNIT    0.2683
     23 Lp23          3.197500    4.955600    0.339500 ?        1 SUBUNIT    0.0000
     24 H24          10.341300    2.680000   -0.284100 H        1 SUBUNIT    0.0570
     25 H25           9.174000    1.620600   -1.226000 H        1 SUBUNIT    0.0570
     26 H26           6.100900    1.881500    1.734700 H        1 SUBUNIT    0.0605
     27 H27           7.025400    3.525800    3.124000 H        1 SUBUNIT    0.0307
     28 H28           6.885300    4.848000    1.850600 H        1 SUBUNIT    0.0307
     29 H29           9.047400    2.649600    2.172500 H        1 SUBUNIT    0.0470
     30 H30           9.210100    4.372600    1.545000 H        1 SUBUNIT    0.0470
     31 H31           1.862300    3.644800    1.859000 H        1 SUBUNIT    0.0856
     32 H32           3.275200    4.639000   -1.677600 H        1 SUBUNIT    0.0712
     33 H33           1.699000    5.536400   -1.403800 H        1 SUBUNIT    0.0712
     34 H34           1.990000    2.727100   -2.234500 H        1 SUBUNIT    0.0305
     35 H35           0.442800    3.537600   -1.674100 H        1 SUBUNIT    0.0305
     36 H36           2.143100    1.631000   -0.201000 H        1 SUBUNIT    0.0314
     37 H37           0.609600    2.461200    0.368400 H        1 SUBUNIT    0.0314
@<TRIPOS>BOND
     1    1    8 1
     2    1   19 1
     3    1   20 1
     4    2   13 1
     5    2   10 1
     6    2    9 1
     7    3   14 1
     8    3   11 1
     9    3   21 1
    10    4   16 1
    11    4   15 1
    12    4   22 1
    13    4   23 1
    14    5    8 2
    15    6   10 2
    16    7   14 2
    17    8    9 1
    18    9   24 1
    19    9   25 1
    20   10   11 1
    21   11   12 1
    22   11   26 1
    23   12   13 1
    24   12   27 1
    25   12   28 1
    26   13   29 1
    27   13   30 1
    28   14   15 1
    29   15   18 1
    30   15   31 1
    31   16   17 1
    32   16   32 1
    33   16   33 1
    34   17   18 1
    35   17   34 1
    36   17   35 1
    37   18   36 1
    38   18   37 1
@<SCITEGIC>ATOM_PROPERTY
Formal Charge
SciTegic.value.StringValue
1 0
2 0
3 0
4 0
5 0
6 0
7 0
8 0
9 0
10 0
11 0
12 0
13 0
14 0
15 0
16 0
17 0
18 0
19 0
20 0
21 0
22 0
23 0
24 0
25 0
26 0
27 0
28 0
29 0
30 0
31 0
32 0
33 0
34 0
35 0
36 0
37 0

@<SCITEGIC>ATOM_PROPERTY
pdb_tempFactor
SciTegic.value.DoubleValue
1 0.00
2 0.00
3 0.00
4 0.00
5 0.00
6 0.00
7 0.00
8 0.00
9 0.00
10 0.00
11 0.00
12 0.00
13 0.00
14 0.00
15 0.00
16 0.00
17 0.00
18 0.00
19 0.00
20 0.00
21 0.00
22 0.00
23 0.00
24 0.00
25 0.00
26 0.00
27 0.00
28 0.00
29 0.00
30 0.00
31 0.00
32 0.00
33 0.00
34 0.00
35 0.00
36 0.00
37 0.00

@<SCITEGIC>ATOM_PROPERTY
pdb_occupancy
SciTegic.value.DoubleValue
1 1.00
2 1.00
3 1.00
4 1.00
5 1.00
6 1.00
7 1.00
8 1.00
9 1.00
10 1.00
11 1.00
12 1.00
13 1.00
14 1.00
15 1.00
16 1.00
17 1.00
18 1.00
19 1.00
20 1.00
21 1.00
22 1.00
23 1.00
24 1.00
25 1.00
26 1.00
27 1.00
28 1.00
29 1.00
30 1.00
31 1.00
32 1.00
33 1.00
34 1.00
35 1.00
36 1.00
37 1.00

#	Copyright: drugdesign.org
#	Creation time:	2024-01-11T11:02:28Z

@<SCITEGIC>ROOT_PROPERTY
Ligand:MaximumNumberOfAtoms
SciTegic.value.IntegerValue
100

@<SCITEGIC>ROOT_PROPERTY
Ligand:HydrogenAtomsCountTowardsMaximum
SciTegic.value.BooleanValue
FALSE

@<TRIPOS>MOLECULE
3
   39    41     0 0 0
SMALL
USER_CHARGES


@<TRIPOS>ATOM
      1 O1            9.525400    5.641000    0.590500 O.2      1 SUBUNIT   -0.2761
      2 N2           10.768900    5.386700   -1.278500 N.am     1 SUBUNIT   -0.3278
      3 O3            7.019900    3.170200   -1.127000 O.2      1 SUBUNIT   -0.2753
      4 O4            3.738000    1.650700    1.697300 O.2      1 SUBUNIT   -0.2753
      5 O5            3.753100    6.324800   -0.895500 O.2      1 SUBUNIT   -0.2756
      6 N6            8.545600    2.982300    0.616000 N.am     1 SUBUNIT   -0.2910
      7 N7            4.962100    3.516500    1.085500 N.am     1 SUBUNIT   -0.2791
      8 N8            2.517700    4.659100    0.091800 N.am     1 SUBUNIT   -0.2886
      9 C9            9.969100    4.859800   -0.255200 C.2      1 SUBUNIT    0.2266
     10 C10           9.705400    3.330100   -0.217500 C.3      1 SUBUNIT    0.0908
     11 C11           7.256500    2.992800    0.069600 C.2      1 SUBUNIT    0.2355
     12 C12           6.230700    2.757700    1.202100 C.3      1 SUBUNIT    0.1044
     13 C13           7.060500    3.153000    2.457700 C.3      1 SUBUNIT   -0.0096
     14 C14           8.521900    2.791900    2.069000 C.3      1 SUBUNIT    0.0170
     15 C15           3.753500    2.828200    1.322500 C.2      1 SUBUNIT    0.2361
     16 C16           2.443000    3.613400    1.118900 C.3      1 SUBUNIT    0.1024
     17 C17           1.345200    4.882700   -0.748100 C.3      1 SUBUNIT    0.0151
     18 C18           0.343000    3.891600   -0.080100 C.3      1 SUBUNIT   -0.0350
     19 C19           1.244900    2.793500    0.568900 C.3      1 SUBUNIT   -0.0241
     20 C20           3.700400    5.391000   -0.088300 C.2      1 SUBUNIT    0.2325
     21 C21           4.900500    4.977400    0.793500 C.3      1 SUBUNIT    0.0921
     22 H22          11.139200    4.776300   -2.023100 H        1 SUBUNIT    0.1455
     23 H23          10.893600    6.413200   -1.258300 H        1 SUBUNIT    0.1455
     24 H24          10.618600    2.832700    0.213800 H        1 SUBUNIT    0.0570
     25 H25           9.574000    2.936000   -1.266600 H        1 SUBUNIT    0.0570
     26 H26           6.074200    1.638100    1.193300 H        1 SUBUNIT    0.0608
     27 H27           6.712000    2.633700    3.399500 H        1 SUBUNIT    0.0307
     28 H28           6.991600    4.269900    2.623200 H        1 SUBUNIT    0.0307
     29 H29           9.279500    3.442200    2.591000 H        1 SUBUNIT    0.0470
     30 H30           8.740200    1.704600    2.288500 H        1 SUBUNIT    0.0470
     31 H31           2.182200    4.108900    2.101000 H        1 SUBUNIT    0.0607
     32 H32           1.578100    4.576100   -1.810300 H        1 SUBUNIT    0.0470
     33 H33           0.983600    5.953100   -0.709500 H        1 SUBUNIT    0.0470
     34 H34          -0.400300    3.468000   -0.814100 H        1 SUBUNIT    0.0283
     35 H35          -0.227600    4.424100    0.738200 H        1 SUBUNIT    0.0283
     36 H36           1.598000    2.080800   -0.234900 H        1 SUBUNIT    0.0291
     37 H37           0.715700    2.200400    1.372200 H        1 SUBUNIT    0.0291
     38 H38           4.793000    5.516100    1.779600 H        1 SUBUNIT    0.0570
     39 H39           5.854800    5.330100    0.312300 H        1 SUBUNIT    0.0570
@<TRIPOS>BOND
     1    1    9 2
     2    2    9 1
     3    2   22 1
     4    2   23 1
     5    3   11 2
     6    4   15 2
     7    5   20 2
     8    6   14 1
     9    6   11 1
    10    6   10 1
    11    7   21 1
    12    7   15 1
    13    7   12 1
    14    8   20 1
    15    8   17 1
    16    8   16 1
    17    9   10 1
    18   10   24 1
    19   10   25 1
    20   11   12 1
    21   12   13 1
    22   12   26 1
    23   13   14 1
    24   13   27 1
    25   13   28 1
    26   14   29 1
    27   14   30 1
    28   15   16 1
    29   16   19 1
    30   16   31 1
    31   17   18 1
    32   17   32 1
    33   17   33 1
    34   18   19 1
    35   18   34 1
    36   18   35 1
    37   19   36 1
    38   19   37 1
    39   20   21 1
    40   21   38 1
    41   21   39 1
@<SCITEGIC>ATOM_PROPERTY
Formal Charge
SciTegic.value.StringValue
1 0
2 0
3 0
4 0
5 0
6 0
7 0
8 0
9 0
10 0
11 0
12 0
13 0
14 0
15 0
16 0
17 0
18 0
19 0
20 0
21 0
22 0
23 0
24 0
25 0
26 0
27 0
28 0
29 0
30 0
31 0
32 0
33 0
34 0
35 0
36 0
37 0
38 0
39 0

@<SCITEGIC>ATOM_PROPERTY
pdb_tempFactor
SciTegic.value.DoubleValue
1 0.00
2 0.00
3 0.00
4 0.00
5 0.00
6 0.00
7 0.00
8 0.00
9 0.00
10 0.00
11 0.00
12 0.00
13 0.00
14 0.00
15 0.00
16 0.00
17 0.00
18 0.00
19 0.00
20 0.00
21 0.00
22 0.00
23 0.00
24 0.00
25 0.00
26 0.00
27 0.00
28 0.00
29 0.00
30 0.00
31 0.00
32 0.00
33 0.00
34 0.00
35 0.00
36 0.00
37 0.00
38 0.00
39 0.00

@<SCITEGIC>ATOM_PROPERTY
pdb_occupancy
SciTegic.value.DoubleValue
1 1.00
2 1.00
3 1.00
4 1.00
5 1.00
6 1.00
7 1.00
8 1.00
9 1.00
10 1.00
11 1.00
12 1.00
13 1.00
14 1.00
15 1.00
16 1.00
17 1.00
18 1.00
19 1.00
20 1.00
21 1.00
22 1.00
23 1.00
24 1.00
25 1.00
26 1.00
27 1.00
28 1.00
29 1.00
30 1.00
31 1.00
32 1.00
33 1.00
34 1.00
35 1.00
36 1.00
37 1.00
38 1.00
39 1.00

#	Copyright: drugdesign.org
#	Creation time:	2024-01-11T11:02:28Z

@<SCITEGIC>ROOT_PROPERTY
Ligand:MaximumNumberOfAtoms
SciTegic.value.IntegerValue
100

@<SCITEGIC>ROOT_PROPERTY
Ligand:HydrogenAtomsCountTowardsMaximum
SciTegic.value.BooleanValue
FALSE

@<TRIPOS>MOLECULE
2
   44    46     0 0 0
SMALL
USER_CHARGES


@<TRIPOS>ATOM
      1 O1            8.993500    5.321200   -1.302100 O.2      1 SUBUNIT   -0.2761
      2 N2            9.877200    4.340100   -3.123000 N.am     1 SUBUNIT   -0.3278
      3 O3            6.372400    2.481000   -1.340000 O.2      1 SUBUNIT   -0.2753
      4 O4            3.715800    1.601300    1.802800 O.2      1 SUBUNIT   -0.2727
      5 N5            8.236600    2.908400   -0.040900 N.am     1 SUBUNIT   -0.2910
      6 N6            4.780600    3.524900    1.008700 N.am     1 SUBUNIT   -0.2478
      7 N7            2.907000    4.643100    0.202500 N.3      1 SUBUNIT    0.2698
      8 C8            9.318400    4.268500   -1.845200 C.2      1 SUBUNIT    0.2266
      9 C9            9.165200    2.885200   -1.173600 C.3      1 SUBUNIT    0.0908
     10 C10           6.865700    2.748700   -0.248800 C.2      1 SUBUNIT    0.2356
     11 C11           6.135000    2.960700    1.090100 C.3      1 SUBUNIT    0.1079
     12 C12           7.184200    3.771400    1.891100 C.3      1 SUBUNIT   -0.0095
     13 C13           8.539100    3.252700    1.344600 C.3      1 SUBUNIT    0.0170
     14 C14           3.676200    2.740900    1.354900 C.2      1 SUBUNIT    0.2597
     15 C15           2.430300    3.554500    1.059100 C.3      1 SUBUNIT    0.1546
     16 C16           2.653100    4.172000   -1.160700 C.3      1 SUBUNIT    0.0662
     17 C17           1.237300    3.566600   -1.063400 C.3      1 SUBUNIT   -0.0143
     18 C18           1.319500    2.805500    0.282900 C.3      1 SUBUNIT   -0.0030
     19 C19           4.326000    4.867200    0.565300 C.3      1 SUBUNIT    0.1536
     20 H20          10.143500    3.485300   -3.626300 H        1 SUBUNIT    0.1455
     21 H21           9.943300    5.286200   -3.522700 H        1 SUBUNIT    0.1455
     22 C22           4.360600    5.836400    1.787300 C.3      1 SUBUNIT   -0.0067
     23 C23           5.148700    5.496800   -0.589700 C.3      1 SUBUNIT   -0.0067
     24 Lp24          2.585100    5.147800    0.306100 ?        1 SUBUNIT    0.0000
     25 H25          10.175300    2.574000   -0.802300 H        1 SUBUNIT    0.0570
     26 H26           8.840600    2.123700   -1.933500 H        1 SUBUNIT    0.0570
     27 H27           6.104600    1.932800    1.546600 H        1 SUBUNIT    0.0609
     28 H28           7.078600    3.656600    3.005700 H        1 SUBUNIT    0.0307
     29 H29           7.117900    4.862900    1.640900 H        1 SUBUNIT    0.0307
     30 H30           9.356100    4.020400    1.414700 H        1 SUBUNIT    0.0470
     31 H31           8.854100    2.316400    1.881000 H        1 SUBUNIT    0.0470
     32 H32           2.049600    3.966600    2.035700 H        1 SUBUNIT    0.0857
     33 H33           3.375100    3.362200   -1.457900 H        1 SUBUNIT    0.0715
     34 H34           2.702700    5.014400   -1.905200 H        1 SUBUNIT    0.0715
     35 H35           0.981400    2.900100   -1.933300 H        1 SUBUNIT    0.0305
     36 H36           0.476900    4.392400   -0.998800 H        1 SUBUNIT    0.0305
     37 H37           1.609800    1.734100    0.102800 H        1 SUBUNIT    0.0314
     38 H38           0.335600    2.814900    0.825100 H        1 SUBUNIT    0.0314
     39 H39           3.848800    6.803600    1.537500 H        1 SUBUNIT    0.0292
     40 H40           3.848100    5.410100    2.691000 H        1 SUBUNIT    0.0292
     41 H41           5.400500    6.099500    2.101400 H        1 SUBUNIT    0.0292
     42 H42           4.691700    6.466500   -0.921900 H        1 SUBUNIT    0.0292
     43 H43           6.197500    5.725000   -0.274400 H        1 SUBUNIT    0.0292
     44 H44           5.223700    4.833500   -1.490800 H        1 SUBUNIT    0.0292
@<TRIPOS>BOND
     1    1    8 2
     2    2    8 1
     3    2   20 1
     4    2   21 1
     5    3   10 2
     6    4   14 2
     7    5   13 1
     8    5   10 1
     9    5    9 1
    10    6   19 1
    11    6   14 1
    12    6   11 1
    13    7   19 1
    14    7   16 1
    15    7   15 1
    16    7   24 1
    17    8    9 1
    18    9   25 1
    19    9   26 1
    20   10   11 1
    21   11   12 1
    22   11   27 1
    23   12   13 1
    24   12   28 1
    25   12   29 1
    26   13   30 1
    27   13   31 1
    28   14   15 1
    29   15   18 1
    30   15   32 1
    31   16   17 1
    32   16   33 1
    33   16   34 1
    34   17   18 1
    35   17   35 1
    36   17   36 1
    37   18   37 1
    38   18   38 1
    39   19   22 1
    40   19   23 1
    41   22   39 1
    42   22   40 1
    43   22   41 1
    44   23   42 1
    45   23   43 1
    46   23   44 1
@<SCITEGIC>ATOM_PROPERTY
Formal Charge
SciTegic.value.StringValue
1 0
2 0
3 0
4 0
5 0
6 0
7 0
8 0
9 0
10 0
11 0
12 0
13 0
14 0
15 0
16 0
17 0
18 0
19 0
20 0
21 0
22 0
23 0
24 0
25 0
26 0
27 0
28 0
29 0
30 0
31 0
32 0
33 0
34 0
35 0
36 0
37 0
38 0
39 0
40 0
41 0
42 0
43 0
44 0

@<SCITEGIC>ATOM_PROPERTY
pdb_tempFactor
SciTegic.value.DoubleValue
1 0.00
2 0.00
3 0.00
4 0.00
5 0.00
6 0.00
7 0.00
8 0.00
9 0.00
10 0.00
11 0.00
12 0.00
13 0.00
14 0.00
15 0.00
16 0.00
17 0.00
18 0.00
19 0.00
20 0.00
21 0.00
22 0.00
23 0.00
24 0.00
25 0.00
26 0.00
27 0.00
28 0.00
29 0.00
30 0.00
31 0.00
32 0.00
33 0.00
34 0.00
35 0.00
36 0.00
37 0.00
38 0.00
39 0.00
40 0.00
41 0.00
42 0.00
43 0.00
44 0.00

@<SCITEGIC>ATOM_PROPERTY
pdb_occupancy
SciTegic.value.DoubleValue
1 1.00
2 1.00
3 1.00
4 1.00
5 1.00
6 1.00
7 1.00
8 1.00
9 1.00
10 1.00
11 1.00
12 1.00
13 1.00
14 1.00
15 1.00
16 1.00
17 1.00
18 1.00
19 1.00
20 1.00
21 1.00
22 1.00
23 1.00
24 1.00
25 1.00
26 1.00
27 1.00
28 1.00
29 1.00
30 1.00
31 1.00
32 1.00
33 1.00
34 1.00
35 1.00
36 1.00
37 1.00
38 1.00
39 1.00
40 1.00
41 1.00
42 1.00
43 1.00
44 1.00

#	Copyright: drugdesign.org
#	Creation time:	2024-01-11T11:02:28Z

@<SCITEGIC>ROOT_PROPERTY
Ligand:MaximumNumberOfAtoms
SciTegic.value.IntegerValue
100

@<SCITEGIC>ROOT_PROPERTY
Ligand:HydrogenAtomsCountTowardsMaximum
SciTegic.value.BooleanValue
FALSE

@<TRIPOS>MOLECULE
peptide1JAN
   25    25     0 0 0
SMALL
USER_CHARGES


@<TRIPOS>ATOM
      1 N1            2.690900    4.796000    0.316600 N.3      1 SUBUNIT    0.1317
      2 C2            2.417200    3.452500    0.896200 C.3      1 SUBUNIT    0.2048
      3 C3            3.740500    2.771200    1.277500 C.2      1 SUBUNIT    0.2506
      4 O4            3.729800    1.706200    1.898000 O.2      1 SUBUNIT   -0.2732
      5 C5            1.662600    2.631600   -0.161800 C.3      1 SUBUNIT    0.0561
      6 C6            2.008800    3.371900   -1.514700 C.3      1 SUBUNIT    0.0432
      7 C7            2.214200    4.836700   -1.111600 C.3      1 SUBUNIT    0.1684
      8 N10           4.864300    3.408000    0.931400 N.am     1 SUBUNIT   -0.3004
      9 C11           6.202200    2.891500    1.198400 C.3      1 SUBUNIT    0.1601
     10 C12           7.051300    3.349500    0.043600 C.2      1 SUBUNIT    0.2326
     11 O13           6.688000    3.047100   -1.104700 O.2      1 SUBUNIT   -0.2755
     12 C14           6.158500    1.352700    1.235200 C.3      1 SUBUNIT    0.0352
     13 C15           6.037600    0.969900    2.716700 C.3      1 SUBUNIT   -0.0151
     14 C16           5.347900   -0.361700    2.968500 C.3      1 SUBUNIT    0.0072
     15 C17           7.422600    1.026400    3.323600 C.3      1 SUBUNIT    0.0072
     16 H18           4.875700    4.288400    0.497800 H        1 SUBUNIT    0.1503
     17 N19           8.130400    4.100500    0.340700 N.am     1 SUBUNIT   -0.3049
     18 C20           9.036800    4.593700   -0.693800 C.3      1 SUBUNIT    0.2014
     19 C21           9.805700    3.379100   -1.169100 C.2      1 SUBUNIT    0.2264
     20 O22          10.167400    2.548900   -0.370500 O.2      1 SUBUNIT   -0.2761
     21 H23           8.374100    4.304900    1.268700 H        1 SUBUNIT    0.1500
     22 N24          10.018800    3.208200   -2.453200 N.am     1 SUBUNIT   -0.3278
     23 H25          10.701200    2.045300   -2.840800 H        1 SUBUNIT    0.1455
     24 H26           9.726500    3.869900   -3.091500 H        1 SUBUNIT    0.1455
     25 H49           2.208645    5.492240    0.848277 H        1 SUBUNIT    0.0000
@<TRIPOS>BOND
     1    1    2 1
     2    1    7 1
     3    2    3 1
     4    2    5 1
     5    3    4 2
     6    3    8 1
     7    5    6 1
     8    6    7 1
     9    8    9 1
    10    8   16 1
    11    9   10 1
    12    9   12 1
    13   10   11 2
    14   10   17 1
    15   12   13 1
    16   13   14 1
    17   13   15 1
    18   17   18 1
    19   17   21 1
    20   18   19 1
    21   19   20 2
    22   19   22 1
    23   22   23 1
    24   22   24 1
    25    1   25 1
@<SCITEGIC>ATOM_PROPERTY
Formal Charge
SciTegic.value.StringValue
1 0
2 0
3 0
4 0
5 0
6 0
7 0
8 0
9 0
10 0
11 0
12 0
13 0
14 0
15 0
16 0
17 0
18 0
19 0
20 0
21 0
22 0
23 0
24 0
25 0

@<SCITEGIC>ATOM_PROPERTY
pdb_tempFactor
SciTegic.value.DoubleValue
1 0.00
2 0.00
3 0.00
4 0.00
5 0.00
6 0.00
7 0.00
8 0.00
9 0.00
10 0.00
11 0.00
12 0.00
13 0.00
14 0.00
15 0.00
16 0.00
17 0.00
18 0.00
19 0.00
20 0.00
21 0.00
22 0.00
23 0.00
24 0.00
25 0.00

@<SCITEGIC>ATOM_PROPERTY
pdb_occupancy
SciTegic.value.DoubleValue
1 1.00
2 1.00
3 1.00
4 1.00
5 1.00
6 1.00
7 1.00
8 1.00
9 1.00
10 1.00
11 1.00
12 1.00
13 1.00
14 1.00
15 1.00
16 1.00
17 1.00
18 1.00
19 1.00
20 1.00
21 1.00
22 1.00
23 1.00
24 1.00
25 1.00

