#	Copyright: drugdesign.org
#	Creation time:	2024-01-11T11:02:23Z

@<SCITEGIC>ROOT_PROPERTY
Ligand:MaximumNumberOfAtoms
SciTegic.value.IntegerValue
100

@<SCITEGIC>ROOT_PROPERTY
Ligand:HydrogenAtomsCountTowardsMaximum
SciTegic.value.BooleanValue
FALSE

@<TRIPOS>MOLECULE
THIP
   20    21     0 0 0
SMALL
USER_CHARGES


@<TRIPOS>ATOM
      1 C1            3.803800    2.772500   -0.811500 C.3      1 SUBUNIT    0.0571
      2 C2            3.911900    1.992200    0.488400 C.3      1 SUBUNIT    0.1109
      3 C3            2.664900    1.124100    0.626300 C.3      1 SUBUNIT    0.0250
      4 N4            1.486400    2.026000    0.701800 N.3      1 SUBUNIT   -0.3140
      5 C5            1.388800    2.991200   -0.427200 C.3      1 SUBUNIT   -0.0040
      6 C6            2.689200    3.798300   -0.617300 C.3      1 SUBUNIT   -0.0274
      7 C7            5.253900    3.149400   -0.887500 C.2      1 SUBUNIT    0.1725
      8 O8            5.187600    1.377200    0.452900 O.3      1 SUBUNIT   -0.2446
      9 N9            5.976700    2.345200   -0.219200 N.2      1 SUBUNIT   -0.1129
     10 O10           5.745900    4.195800   -1.599400 O.3      1 SUBUNIT   -0.3465
     11 H11           6.698400    4.183200   -1.478800 H        1 SUBUNIT    0.2197
     12 H12           3.577000    2.109100   -1.649300 H        1 SUBUNIT    0.0420
     13 H13           3.935300    2.686200    1.334900 H        1 SUBUNIT    0.0654
     14 H14           2.576700    0.448000   -0.227000 H        1 SUBUNIT    0.0456
     15 H15           2.732400    0.535700    1.543700 H        1 SUBUNIT    0.0456
     16 H16           0.637800    1.479200    0.768600 H        1 SUBUNIT    0.1223
     17 H17           1.167600    2.443700   -1.346500 H        1 SUBUNIT    0.0428
     18 H18           0.567400    3.683700   -0.232100 H        1 SUBUNIT    0.0428
     19 H19           2.609100    4.428400   -1.505500 H        1 SUBUNIT    0.0288
     20 H20           2.882400    4.428800    0.253600 H        1 SUBUNIT    0.0288
@<TRIPOS>BOND
     1    1    2 1
     2    1    6 1
     3    1    7 1
     4    1   12 1
     5    2    3 1
     6    2    8 1
     7    2   13 1
     8    3    4 1
     9    3   14 1
    10    3   15 1
    11    4    5 1
    12    4   16 1
    13    5    6 1
    14    5   17 1
    15    5   18 1
    16    6   19 1
    17    6   20 1
    18    7    9 2
    19    7   10 1
    20    8    9 1
    21   10   11 1
@<SCITEGIC>ATOM_PROPERTY
Formal Charge
SciTegic.value.StringValue
1 0
2 0
3 0
4 0
5 0
6 0
7 0
8 0
9 0
10 0
11 0
12 0
13 0
14 0
15 0
16 0
17 0
18 0
19 0
20 0

@<SCITEGIC>ATOM_PROPERTY
pdb_tempFactor
SciTegic.value.DoubleValue
1 0.00
2 0.00
3 0.00
4 0.00
5 0.00
6 0.00
7 0.00
8 0.00
9 0.00
10 0.00
11 0.00
12 0.00
13 0.00
14 0.00
15 0.00
16 0.00
17 0.00
18 0.00
19 0.00
20 0.00

@<SCITEGIC>ATOM_PROPERTY
pdb_occupancy
SciTegic.value.DoubleValue
1 1.00
2 1.00
3 1.00
4 1.00
5 1.00
6 1.00
7 1.00
8 1.00
9 1.00
10 1.00
11 1.00
12 1.00
13 1.00
14 1.00
15 1.00
16 1.00
17 1.00
18 1.00
19 1.00
20 1.00

#	Copyright: drugdesign.org
#	Creation time:	2024-01-11T11:02:23Z

@<SCITEGIC>ROOT_PROPERTY
Ligand:MaximumNumberOfAtoms
SciTegic.value.IntegerValue
100

@<SCITEGIC>ROOT_PROPERTY
Ligand:HydrogenAtomsCountTowardsMaximum
SciTegic.value.BooleanValue
FALSE

@<TRIPOS>MOLECULE
Muscimol
   16    16     0 0 0
SMALL
USER_CHARGES


@<TRIPOS>ATOM
      1 C1            3.823300    3.257200   -0.434500 C.3      1 SUBUNIT    0.0010
      2 C2            3.881100    2.232100    0.706000 C.3      1 SUBUNIT   -0.0491
      3 C3            2.710600    1.241900    0.669100 C.3      1 SUBUNIT   -0.0178
      4 N4            1.424800    1.964400    0.737000 N.3      1 SUBUNIT   -0.3318
      5 C5            5.274200    3.262800   -0.814300 C.2      1 SUBUNIT    0.1202
      6 O6            5.122000    1.547500    0.586100 O.3      1 SUBUNIT    0.3207
      7 N7            5.927500    2.332300   -0.259300 N.2      1 SUBUNIT   -0.3134
      8 O8            5.836300    4.156900   -1.667700 O.3      1 SUBUNIT   -0.3496
      9 H9            6.766500    3.926200   -1.730000 H        1 SUBUNIT    0.2195
     10 H10           0.661200    1.303100    0.691800 H        1 SUBUNIT    0.1183
     11 H11           3.230000    2.901800   -1.278800 H        1 SUBUNIT    0.0339
     12 H12           3.483300    4.235200   -0.088800 H        1 SUBUNIT    0.0339
     13 H13           3.884300    2.767600    1.659200 H        1 SUBUNIT    0.0135
     14 H14           2.754000    0.660800   -0.254900 H        1 SUBUNIT    0.0411
     15 H15           2.789600    0.560700    1.519400 H        1 SUBUNIT    0.0411
     16 H16           1.359500    2.609000   -0.040000 H        1 SUBUNIT    0.1183
@<TRIPOS>BOND
     1    1    2 1
     2    1    5 1
     3    1   11 1
     4    1   12 1
     5    2    3 1
     6    2    6 1
     7    2   13 1
     8    3    4 1
     9    3   14 1
    10    3   15 1
    11    4   10 1
    12    4   16 1
    13    5    7 2
    14    5    8 1
    15    6    7 1
    16    8    9 1
@<SCITEGIC>ATOM_PROPERTY
Formal Charge
SciTegic.value.StringValue
1 0
2 0
3 0
4 0
5 0
6 0
7 0
8 0
9 0
10 0
11 0
12 0
13 0
14 0
15 0
16 0

@<SCITEGIC>ATOM_PROPERTY
pdb_tempFactor
SciTegic.value.DoubleValue
1 0.00
2 0.00
3 0.00
4 0.00
5 0.00
6 0.00
7 0.00
8 0.00
9 0.00
10 0.00
11 0.00
12 0.00
13 0.00
14 0.00
15 0.00
16 0.00

@<SCITEGIC>ATOM_PROPERTY
pdb_occupancy
SciTegic.value.DoubleValue
1 1.00
2 1.00
3 1.00
4 1.00
5 1.00
6 1.00
7 1.00
8 1.00
9 1.00
10 1.00
11 1.00
12 1.00
13 1.00
14 1.00
15 1.00
16 1.00

#	Copyright: drugdesign.org
#	Creation time:	2024-01-11T11:02:23Z

@<SCITEGIC>ROOT_PROPERTY
Ligand:MaximumNumberOfAtoms
SciTegic.value.IntegerValue
100

@<SCITEGIC>ROOT_PROPERTY
Ligand:HydrogenAtomsCountTowardsMaximum
SciTegic.value.BooleanValue
FALSE

@<TRIPOS>MOLECULE
GABA
   16    15     0 0 0
SMALL
USER_CHARGES


@<TRIPOS>ATOM
      1 C1            3.877600    2.687500   -0.741700 C.3      1 SUBUNIT    0.0347
      2 C2            3.633200    1.454900    0.141200 C.3      1 SUBUNIT   -0.0315
      3 C3            2.162400    1.022700    0.133600 C.3      1 SUBUNIT   -0.0072
      4 N4            1.304800    2.093000    0.676600 N.3      1 SUBUNIT   -0.3305
      5 C5            5.360300    3.042400   -0.820600 C.2      1 SUBUNIT    0.2582
      6 O6            6.267400    2.432700   -0.327600 O.2      1 SUBUNIT   -0.2668
      7 O7            5.530300    4.148300   -1.532800 O.3      1 SUBUNIT   -0.3318
      8 H8            6.466300    4.357400   -1.568400 H        1 SUBUNIT    0.2214
      9 H9            0.353800    1.759100    0.765600 H        1 SUBUNIT    0.1184
     10 H10           1.317400    2.898600    0.065300 H        1 SUBUNIT    0.1184
     11 H11           3.512500    2.486100   -1.750600 H        1 SUBUNIT    0.0373
     12 H12           3.343400    3.546400   -0.332400 H        1 SUBUNIT    0.0373
     13 H13           4.235400    0.624500   -0.234800 H        1 SUBUNIT    0.0285
     14 H14           3.945700    1.674200    1.165200 H        1 SUBUNIT    0.0285
     15 H15           1.850300    0.780000   -0.884900 H        1 SUBUNIT    0.0426
     16 H16           2.055100    0.132000    0.757100 H        1 SUBUNIT    0.0426
@<TRIPOS>BOND
     1    1    2 1
     2    1    5 1
     3    1   11 1
     4    1   12 1
     5    2    3 1
     6    2   13 1
     7    2   14 1
     8    3    4 1
     9    3   15 1
    10    3   16 1
    11    4    9 1
    12    4   10 1
    13    5    6 2
    14    5    7 1
    15    7    8 1
@<SCITEGIC>ATOM_PROPERTY
Formal Charge
SciTegic.value.StringValue
1 0
2 0
3 0
4 0
5 0
6 0
7 0
8 0
9 0
10 0
11 0
12 0
13 0
14 0
15 0
16 0

@<SCITEGIC>ATOM_PROPERTY
pdb_tempFactor
SciTegic.value.DoubleValue
1 0.00
2 0.00
3 0.00
4 0.00
5 0.00
6 0.00
7 0.00
8 0.00
9 0.00
10 0.00
11 0.00
12 0.00
13 0.00
14 0.00
15 0.00
16 0.00

@<SCITEGIC>ATOM_PROPERTY
pdb_occupancy
SciTegic.value.DoubleValue
1 1.00
2 1.00
3 1.00
4 1.00
5 1.00
6 1.00
7 1.00
8 1.00
9 1.00
10 1.00
11 1.00
12 1.00
13 1.00
14 1.00
15 1.00
16 1.00

