#	Copyright: drugdesign.org
#	Creation time:	2024-01-11T11:02:12Z

@<SCITEGIC>ROOT_PROPERTY
Ligand:MaximumNumberOfAtoms
SciTegic.value.IntegerValue
100

@<SCITEGIC>ROOT_PROPERTY
Ligand:HydrogenAtomsCountTowardsMaximum
SciTegic.value.BooleanValue
FALSE

@<TRIPOS>MOLECULE
1hvr.mol
   35    39     0 0 0
SMALL
USER_CHARGES


@<TRIPOS>ATOM
      1 C1            3.988200   -0.933400    0.090200 C.3      1 SUBUNIT    0.3045
      2 N3            4.559700   -1.408300    1.237200 N.3      1 SUBUNIT   -0.2752
      3 N4            4.667000   -0.817000   -1.095300 N.3      1 SUBUNIT   -0.2752
      4 C5            3.621000   -1.855100    2.274700 C.3      1 SUBUNIT    0.1453
      5 C6            5.991900   -1.256400    1.570100 C.3      1 SUBUNIT    0.1136
      6 C7            5.853500   -1.597600   -1.484000 C.3      1 SUBUNIT    0.1136
      7 C8            4.065700    0.022700   -2.134900 C.3      1 SUBUNIT    0.1453
      8 C9            3.915500   -3.098800    3.073100 C.ar     1 SUBUNIT   -0.0299
      9 C10           6.991000   -2.014200    0.705300 C.3      1 SUBUNIT    0.1655
     10 C11           6.301800    0.255300    1.823900 C.3      1 SUBUNIT    0.0608
     11 C12           7.133800   -1.403700   -0.681400 C.3      1 SUBUNIT    0.1655
     12 C13           5.402800   -3.056700   -1.719600 C.3      1 SUBUNIT    0.0608
     13 C14           4.940900    0.947200   -2.947500 C.ar     1 SUBUNIT   -0.0299
     14 C15           4.306500   -4.323800    2.463200 C.ar     1 SUBUNIT    0.0058
     15 C16           3.657800   -3.018200    4.458000 C.ar     1 SUBUNIT    0.0137
     16 C18           5.656700    0.759800    3.110500 C.ar     1 SUBUNIT   -0.0460
     17 C20           4.605200   -3.189200   -3.000600 C.ar     1 SUBUNIT   -0.0460
     18 C21           4.770900    0.841500   -4.340500 C.ar     1 SUBUNIT    0.0137
     19 C22           5.765800    1.944800   -2.367900 C.ar     1 SUBUNIT    0.0058
     20 C23           4.413300   -5.496100    3.239100 C.ar     1 SUBUNIT    0.0089
     21 C24           3.765200   -4.183200    5.235400 C.ar     1 SUBUNIT   -0.0180
     22 C26           4.422700    1.469600    3.061000 C.ar     1 SUBUNIT    0.0036
     23 C27           6.228500    0.430300    4.366200 C.ar     1 SUBUNIT    0.0036
     24 C29           5.242400   -3.039900   -4.260900 C.ar     1 SUBUNIT    0.0036
     25 C30           3.218100   -3.454200   -2.916700 C.ar     1 SUBUNIT    0.0036
     26 C31           5.414000    1.756100   -5.171500 C.ar     1 SUBUNIT   -0.0180
     27 C32           6.409700    2.871600   -3.191500 C.ar     1 SUBUNIT    0.0089
     28 C33           4.134200   -5.423500    4.626800 C.ar     1 SUBUNIT   -0.0184
     29 C35           3.750400    1.821700    4.259100 C.ar     1 SUBUNIT    0.0003
     30 C36           5.566100    0.791400    5.557200 C.ar     1 SUBUNIT    0.0003
     31 C37           4.471200   -3.154100   -5.441100 C.ar     1 SUBUNIT    0.0003
     32 C38           2.448400   -3.573800   -4.096000 C.ar     1 SUBUNIT    0.0003
     33 C40           6.235000    2.779900   -4.597500 C.ar     1 SUBUNIT   -0.0184
     34 C43           4.327200    1.477700    5.498400 C.ar     1 SUBUNIT    0.0000
     35 C44           3.075300   -3.419900   -5.347700 C.ar     1 SUBUNIT    0.0000
@<TRIPOS>BOND
     1    1    2 1
     2    1    3 1
     3    2    4 1
     4    2    5 1
     5    3    6 1
     6    3    7 1
     7    4    8 1
     8    5    9 1
     9    5   10 1
    10    6   11 1
    11    6   12 1
    12    7   13 1
    13    8   14 ar
    14    8   15 ar
    15    9   11 1
    16   10   16 1
    17   12   17 1
    18   13   18 ar
    19   13   19 ar
    20   14   20 ar
    21   15   21 ar
    22   16   22 ar
    23   16   23 ar
    24   17   24 ar
    25   17   25 ar
    26   18   26 ar
    27   19   27 ar
    28   20   28 ar
    29   21   28 ar
    30   22   29 ar
    31   23   30 ar
    32   24   31 ar
    33   25   32 ar
    34   26   33 ar
    35   27   33 ar
    36   29   34 ar
    37   30   34 ar
    38   31   35 ar
    39   32   35 ar
@<SCITEGIC>ATOM_PROPERTY
Formal Charge
SciTegic.value.StringValue
1 0
2 0
3 0
4 0
5 0
6 0
7 0
8 0
9 0
10 0
11 0
12 0
13 0
14 0
15 0
16 0
17 0
18 0
19 0
20 0
21 0
22 0
23 0
24 0
25 0
26 0
27 0
28 0
29 0
30 0
31 0
32 0
33 0
34 0
35 0

@<SCITEGIC>ATOM_PROPERTY
pdb_tempFactor
SciTegic.value.DoubleValue
1 0.00
2 0.00
3 0.00
4 0.00
5 0.00
6 0.00
7 0.00
8 0.00
9 0.00
10 0.00
11 0.00
12 0.00
13 0.00
14 0.00
15 0.00
16 0.00
17 0.00
18 0.00
19 0.00
20 0.00
21 0.00
22 0.00
23 0.00
24 0.00
25 0.00
26 0.00
27 0.00
28 0.00
29 0.00
30 0.00
31 0.00
32 0.00
33 0.00
34 0.00
35 0.00

@<SCITEGIC>ATOM_PROPERTY
pdb_occupancy
SciTegic.value.DoubleValue
1 1.00
2 1.00
3 1.00
4 1.00
5 1.00
6 1.00
7 1.00
8 1.00
9 1.00
10 1.00
11 1.00
12 1.00
13 1.00
14 1.00
15 1.00
16 1.00
17 1.00
18 1.00
19 1.00
20 1.00
21 1.00
22 1.00
23 1.00
24 1.00
25 1.00
26 1.00
27 1.00
28 1.00
29 1.00
30 1.00
31 1.00
32 1.00
33 1.00
34 1.00
35 1.00

