#	Copyright: drugdesign.org
#	Creation time:	2024-01-11T11:02:27Z

@<TRIPOS>MOLECULE
tordu.sd
   26    28     0 0 0
SMALL
USER_CHARGES


@<TRIPOS>ATOM
      1 C1           -0.501900   -1.606800   -0.067700 C.ar     1 SUBUNIT   -0.0111
      2 C2           -1.164100   -2.414700    0.882600 C.ar     1 SUBUNIT    0.0395
      3 C3           -2.423500   -2.025100    1.388200 C.ar     1 SUBUNIT    0.0757
      4 C4           -3.020800   -0.827500    0.943600 C.ar     1 SUBUNIT    0.0467
      5 C5            2.986700   -0.678900   -0.138800 C.ar     1 SUBUNIT    0.0208
      6 C6            3.889600   -0.063900    0.758300 C.2      1 SUBUNIT    0.0320
      7 C7            4.842100    0.860200    0.277600 C.2      1 SUBUNIT    0.0428
      8 C8            4.891700    1.169400   -1.100200 C.ar     1 SUBUNIT    0.0406
      9 C9            3.988900    0.554500   -1.997300 C.ar     1 SUBUNIT    0.0428
     10 C10           3.036300   -0.369700   -1.516500 C.ar     1 SUBUNIT    0.0320
     11 C11           1.968700   -1.633400    0.363300 C.2      1 SUBUNIT    0.1669
     12 O12           2.006100   -2.078800    1.503500 O.2      1 SUBUNIT   -0.2938
     13 C13           0.871200   -2.016800   -0.617000 C.3      1 SUBUNIT    0.1185
     14 Cl14          5.973300    1.630700    1.400900 Cl       1 SUBUNIT   -0.0843
     15 Cl15          4.052000    0.942800   -3.723700 Cl       1 SUBUNIT   -0.0843
     16 N16          -0.444700    0.346900   -1.422800 N.ar     1 SUBUNIT   -0.2359
     17 C17          -1.041500    1.542000   -1.866000 C.ar     1 SUBUNIT    0.2238
     18 N18          -2.297100    1.930500   -1.362000 N.ar     1 SUBUNIT   -0.2246
     19 C19          -2.955900    1.123900   -0.414800 C.ar     1 SUBUNIT    0.1140
     20 C20          -2.359200   -0.071200    0.028500 C.ar     1 SUBUNIT    0.0398
     21 C21          -1.103500   -0.459700   -0.475500 C.ar     1 SUBUNIT    0.0791
     22 N22          -4.244500    1.522600    0.102500 N.pl3    1 SUBUNIT   -0.2863
     23 O23          -3.040200   -2.779400    2.274400 O.3      1 SUBUNIT   -0.3493
     24 C24          -4.273200   -2.125000    2.586400 C.3      1 SUBUNIT    0.2028
     25 H25          -4.652200    2.387200   -0.232900 H        1 SUBUNIT    0.1258
     26 H26          -4.729200    0.951100    0.784600 H        1 SUBUNIT    0.1258
@<TRIPOS>BOND
     1    1    2 ar
     2    1   21 ar
     3    1   13 1
     4    2    3 ar
     5    3    4 ar
     6    3   23 1
     7    4   20 ar
     8    5    6 ar
     9    5   10 ar
    10    5   11 1
    11    6    7 1
    12    7    8 ar
    13    7   14 1
    14    8    9 ar
    15    9   10 ar
    16    9   15 ar
    17   11   12 2
    18   11   13 1
    19   16   17 ar
    20   16   21 ar
    21   17   18 ar
    22   18   19 ar
    23   19   20 ar
    24   19   22 1
    25   20   21 ar
    26   22   25 1
    27   22   26 1
    28   23   24 1
@<SCITEGIC>ATOM_PROPERTY
Formal Charge
SciTegic.value.StringValue
1 0
2 0
3 0
4 0
5 0
6 0
7 0
8 0
9 0
10 0
11 0
12 0
13 0
14 0
15 0
16 0
17 0
18 0
19 0
20 0
21 0
22 0
23 0
24 0
25 0
26 0

@<SCITEGIC>ATOM_PROPERTY
pdb_tempFactor
SciTegic.value.DoubleValue
1 0.00
2 0.00
3 0.00
4 0.00
5 0.00
6 0.00
7 0.00
8 0.00
9 0.00
10 0.00
11 0.00
12 0.00
13 0.00
14 0.00
15 0.00
16 0.00
17 0.00
18 0.00
19 0.00
20 0.00
21 0.00
22 0.00
23 0.00
24 0.00
25 0.00
26 0.00

@<SCITEGIC>ATOM_PROPERTY
pdb_occupancy
SciTegic.value.DoubleValue
1 1.00
2 1.00
3 1.00
4 1.00
5 1.00
6 1.00
7 1.00
8 1.00
9 1.00
10 1.00
11 1.00
12 1.00
13 1.00
14 1.00
15 1.00
16 1.00
17 1.00
18 1.00
19 1.00
20 1.00
21 1.00
22 1.00
23 1.00
24 1.00
25 1.00
26 1.00

#	Copyright: drugdesign.org
#	Creation time:	2024-01-11T11:02:27Z

@<TRIPOS>MOLECULE
tordu.sd
   25    27     0 0 0
SMALL
USER_CHARGES


@<TRIPOS>ATOM
      1 C1           -0.536994   -1.155720    0.043364 C.ar     1 SUBUNIT    0.0035
      2 C2           -1.199193   -1.963619    0.993564 C.ar     1 SUBUNIT    0.0434
      3 C3           -2.458695   -1.574020    1.499164 C.ar     1 SUBUNIT    0.0760
      4 C4           -3.055895   -0.376519    1.054564 C.ar     1 SUBUNIT    0.0467
      5 C5            0.660906   -1.527320   -0.437036 C.2      1 SUBUNIT    0.0109
      6 C6            1.774207   -1.305720    0.289064 C.2      1 SUBUNIT    0.0087
      7 C7            2.680505   -0.403819   -0.069236 C.ar     1 SUBUNIT   -0.0227
      8 C8            3.540505    0.171381    0.894064 C.ar     1 SUBUNIT    0.0283
      9 C9            4.499107    1.129980    0.501064 C.ar     1 SUBUNIT    0.0426
     10 C10           4.597707    1.513280   -0.855136 C.ar     1 SUBUNIT    0.0406
     11 C11           3.737805    0.938181   -1.818536 C.ar     1 SUBUNIT    0.0426
     12 C12           2.779105   -0.020519   -1.425436 C.ar     1 SUBUNIT    0.0283
     13 Cl13          5.576508    1.850680    1.707364 Cl       1 SUBUNIT   -0.0843
     14 Cl14          3.862306    1.419380   -3.517836 Cl       1 SUBUNIT   -0.0843
     15 N15          -0.479894    0.798081   -1.311836 N.ar     1 SUBUNIT   -0.2356
     16 C16          -1.076694    1.993080   -1.755036 C.ar     1 SUBUNIT    0.2238
     17 N17          -2.332295    2.381582   -1.251036 N.ar     1 SUBUNIT   -0.2246
     18 C18          -2.991095    1.574980   -0.303736 C.ar     1 SUBUNIT    0.1140
     19 C19          -2.394295    0.379881    0.139564 C.ar     1 SUBUNIT    0.0402
     20 C20          -1.138693   -0.008619   -0.364536 C.ar     1 SUBUNIT    0.0826
     21 N21          -4.279593    1.973580    0.213464 N.pl3    1 SUBUNIT   -0.2863
     22 O22          -3.075295   -2.328418    2.385364 O.3      1 SUBUNIT   -0.3493
     23 C23          -4.308292   -1.674020    2.697464 C.3      1 SUBUNIT    0.2028
     24 H24          -4.687293    2.838182   -0.121836 H        1 SUBUNIT    0.1258
     25 H25          -4.764293    1.402080    0.895664 H        1 SUBUNIT    0.1258
@<TRIPOS>BOND
     1    1    2 ar
     2    1   20 ar
     3    1    5 1
     4    2    3 ar
     5    3    4 ar
     6    3   22 1
     7    4   19 ar
     8    5    6 2
     9    6    7 1
    10    7    8 ar
    11    7   12 ar
    12    8    9 ar
    13    9   10 ar
    14    9   13 1
    15   10   11 ar
    16   11   12 ar
    17   11   14 1
    18   15   16 ar
    19   15   20 ar
    20   16   17 ar
    21   17   18 ar
    22   18   19 ar
    23   18   21 1
    24   19   20 ar
    25   21   24 1
    26   21   25 1
    27   22   23 1
@<SCITEGIC>ATOM_PROPERTY
Formal Charge
SciTegic.value.StringValue
1 0
2 0
3 0
4 0
5 0
6 0
7 0
8 0
9 0
10 0
11 0
12 0
13 0
14 0
15 0
16 0
17 0
18 0
19 0
20 0
21 0
22 0
23 0
24 0
25 0

@<SCITEGIC>ATOM_PROPERTY
pdb_tempFactor
SciTegic.value.DoubleValue
1 0.00
2 0.00
3 0.00
4 0.00
5 0.00
6 0.00
7 0.00
8 0.00
9 0.00
10 0.00
11 0.00
12 0.00
13 0.00
14 0.00
15 0.00
16 0.00
17 0.00
18 0.00
19 0.00
20 0.00
21 0.00
22 0.00
23 0.00
24 0.00
25 0.00

@<SCITEGIC>ATOM_PROPERTY
pdb_occupancy
SciTegic.value.DoubleValue
1 1.00
2 1.00
3 1.00
4 1.00
5 1.00
6 1.00
7 1.00
8 1.00
9 1.00
10 1.00
11 1.00
12 1.00
13 1.00
14 1.00
15 1.00
16 1.00
17 1.00
18 1.00
19 1.00
20 1.00
21 1.00
22 1.00
23 1.00
24 1.00
25 1.00

