mimicry.sd
  copyright 2023 drugdesign.org                             0

 25 27  0  0  0  0  0  0  0  0999 V2000
    0.5337    1.2848   -3.4147 H   0  0
    0.9456    0.6729   -2.8132 N   0  0
    2.2427    0.2340   -3.3809 C   0  0
    3.0161   -0.7090   -2.4410 C   0  0
    3.1651   -0.1305   -1.0225 C   0  0
    1.8316    0.3936   -0.4482 C   0  0  1  0  0  0
    1.1210    1.3065   -1.4826 C   0  0  2  0  0  0
   -0.1270    2.0314   -0.9571 C   0  0
    0.0056    3.2638   -0.3087 C   0  0
   -1.1327    3.9189    0.1661 C   0  0
   -2.4074    3.3707    0.0074 C   0  0
   -2.5309    2.1398   -0.6414 C   0  0
   -1.4004    1.4721   -1.1220 C   0  0
    1.0069   -0.5638    0.3403 N   0  0
    0.2762   -0.1033    0.7380 H   0  0
    0.5177   -1.7831   -0.3420 C   0  0
   -0.4148   -2.6113    0.5395 C   0  0
   -1.7543   -2.7845    0.1772 C   0  0
   -2.6074   -3.5432    0.9830 C   0  0
   -2.1208   -4.1297    2.1549 C   0  0
   -0.7816   -3.9590    2.5169 C   0  0
    0.0704   -3.2012    1.7106 C   0  0
   -0.9977    5.1227    0.7999 O   0  0
   -0.1708   -4.6959    3.9829 Cl  0  0
   -1.8976    5.3989    1.0450 H   0  0
  1  2  1  0  0  0
  2  3  1  0  0  0
  2  7  1  0  0  0
  3  4  1  0  0  0
  4  5  1  0  0  0
  5  6  1  0  0  0
  6  7  1  0  0  0
  6 14  1  0  0  0
  7  8  1  0  0  0
  8  9  1  0  0  0
  8 13  1  0  0  0
  9 10  1  0  0  0
 10 11  1  0  0  0
 10 23  1  0  0  0
 11 12  1  0  0  0
 12 13  1  0  0  0
 14 15  1  0  0  0
 14 16  1  0  0  0
 16 17  1  0  0  0
 17 18  1  0  0  0
 17 22  1  0  0  0
 18 19  1  0  0  0
 19 20  1  0  0  0
 20 21  1  0  0  0
 21 22  1  0  0  0
 21 24  1  0  0  0
 23 25  1  0  0  0
M  END
$$$$
mimicry.sd
  copyright 2023 drugdesign.org                             0

 22 24  0  0  0  0  0  0  0  0999 V2000
    0.1440    2.1708   -0.9100 C   0  0
    0.3147    3.3881   -0.2421 C   0  0
   -0.8043    4.0798    0.2267 C   0  0
   -2.0967    3.5833    0.0429 C   0  0
   -2.2582    2.3673   -0.6253 C   0  0
   -1.1474    1.6633   -1.1002 C   0  0
   -0.1136   -2.5656    0.4360 C   0  0
   -1.4506   -2.7630    0.0771 C   0  0
   -2.2737   -3.5802    0.8565 C   0  0
   -1.7596   -4.2010    1.9986 C   0  0
   -0.4228   -4.0060    2.3571 C   0  0
    0.3993   -3.1898    1.5771 C   0  0
    1.0634   -0.3601    0.4290 O   0  0
    0.7644   -1.6290   -0.3951 C   0  0  1  0  0  0
    2.0553   -2.3452   -0.8302 C   0  0
    3.3098   -0.1259   -0.7400 C   0  0
    2.0306    0.6112   -0.2837 C   0  0  1  0  0  0
    1.3518    1.3850   -1.4323 C   0  0
   -0.6278    5.2889    0.8909 O   0  0
    0.2290   -4.7935    3.8002 Cl  0  0
    2.9777   -1.3754   -1.4773 C   0  0
   -1.5194    5.5969    1.1283 H   0  0
  1  2  1  0  0  0
  1  6  1  0  0  0
  1 18  1  0  0  0
  2  3  1  0  0  0
  3  4  1  0  0  0
  3 19  1  0  0  0
  4  5  1  0  0  0
  5  6  1  0  0  0
  7  8  1  0  0  0
  7 12  1  0  0  0
  7 14  1  0  0  0
  8  9  1  0  0  0
  9 10  1  0  0  0
 10 11  1  0  0  0
 11 12  1  0  0  0
 11 20  1  0  0  0
 13 14  1  0  0  0
 13 17  1  0  0  0
 14 15  1  0  0  0
 15 21  1  0  0  0
 16 21  1  0  0  0
 16 17  1  0  0  0
 17 18  1  0  0  0
 19 22  1  0  0  0
M  END
$$$$
