#	Copyright: drugdesign.org
#	Creation time:	2024-01-11T11:02:24Z

@<TRIPOS>MOLECULE
Molecule
   19    20     0 0 0
SMALL
USER_CHARGES


@<TRIPOS>ATOM
      1 C1           -3.313104   -2.489473    0.107470 C.2      1 SUBUNIT    0.2710
      2 C2           -2.073258   -3.238586    0.107006 C.2      1 SUBUNIT    0.1627
      3 C3           -2.118047   -4.568344    0.104656 C.2      1 SUBUNIT    0.1404
      4 N4           -3.371886   -5.239299    0.103832 N.2      1 SUBUNIT   -0.2079
      5 C5           -4.486627   -4.607396    0.103725 C.2      1 SUBUNIT    0.1706
      6 N6           -4.506575   -3.190994    0.106406 N.am     1 SUBUNIT   -0.2550
      7 N13          -0.929856   -5.317958    0.103066 N.pl3    1 SUBUNIT   -0.2653
      8 C14           0.358847   -4.673842    0.090258 C.3      1 SUBUNIT    0.0397
      9 C15           0.260780   -3.161175    0.105084 C.2      1 SUBUNIT    0.0301
     10 N16          -0.861591   -2.560242    0.111186 N.2      1 SUBUNIT   -0.2479
     11 O22          -3.304667   -1.251572    0.105862 O.2      1 SUBUNIT   -0.2695
     12 H24          -5.370147   -2.698572    0.108033 H        1 SUBUNIT    0.1586
     13 N26          -5.696383   -5.330842    0.107325 N.pl3    1 SUBUNIT   -0.2739
     14 C28           1.524356   -2.343790    0.111784 C.3      1 SUBUNIT   -0.0249
     15 H30          -0.978051   -6.308590    0.109037 H        1 SUBUNIT    0.1301
     16 H32           0.871003   -4.968452    0.897042 H        1 SUBUNIT    0.0496
     17 H34           0.847533   -4.953968   -0.736008 H        1 SUBUNIT    0.0496
     18 H36          -6.570936   -4.848965    0.108730 H        1 SUBUNIT    0.1271
     19 H38          -5.680619   -6.330015    0.108431 H        1 SUBUNIT    0.1271
@<TRIPOS>BOND
     1    1    2 1
     2    2    3 2
     3    3    4 1
     4    4    5 2
     5    5    6 1
     6    6    1 1
     7    7    8 1
     8    8    9 1
     9    9   10 2
    10    2   10 1
    11    3    7 1
    12    1   11 2
    13    6   12 1
    14    5   13 1
    15    9   14 1
    16    7   15 1
    17    8   16 1
    18    8   17 1
    19   13   18 1
    20   13   19 1
@<SCITEGIC>ATOM_PROPERTY
Formal Charge
SciTegic.value.StringValue
1 0
2 0
3 0
4 0
5 0
6 0
7 0
8 0
9 0
10 0
11 0
12 0
13 0
14 0
15 0
16 0
17 0
18 0
19 0

@<SCITEGIC>ATOM_PROPERTY
pdb_tempFactor
SciTegic.value.DoubleValue
1 0.00
2 0.00
3 0.00
4 0.00
5 0.00
6 0.00
7 0.00
8 0.00
9 0.00
10 0.00
11 0.00
12 0.00
13 0.00
14 0.00
15 0.00
16 0.00
17 0.00
18 0.00
19 0.00

@<SCITEGIC>ATOM_PROPERTY
pdb_occupancy
SciTegic.value.DoubleValue
1 1.00
2 1.00
3 1.00
4 1.00
5 1.00
6 1.00
7 1.00
8 1.00
9 1.00
10 1.00
11 1.00
12 1.00
13 1.00
14 1.00
15 1.00
16 1.00
17 1.00
18 1.00
19 1.00

#	Copyright: drugdesign.org
#	Creation time:	2024-01-11T11:02:24Z

@<TRIPOS>MOLECULE
Molecule
   18    19     0 0 0
SMALL
USER_CHARGES


@<TRIPOS>ATOM
      1 C1           -3.120009   -2.643025    0.115768 C.2      1 SUBUNIT    0.1354
      2 C2           -1.966716   -3.309664    0.128764 C.2      1 SUBUNIT    0.1365
      3 C3           -1.987368   -4.748959    0.138965 C.2      1 SUBUNIT    0.1385
      4 N4           -3.099948   -5.365593    0.140910 N.2      1 SUBUNIT   -0.2042
      5 C5           -4.321823   -4.661891    0.132947 C.2      1 SUBUNIT    0.2004
      6 N6           -4.335639   -3.379404    0.119780 N.2      1 SUBUNIT   -0.2045
      7 N13          -0.792050   -5.461692    0.142576 N.2      1 SUBUNIT   -0.2653
      8 C14           0.475920   -4.782954    0.133909 C.2      1 SUBUNIT    0.0397
      9 C15           0.370847   -3.255574    0.135920 C.2      1 SUBUNIT    0.0300
     10 N16          -0.749098   -2.634990    0.130770 N.2      1 SUBUNIT   -0.2500
     11 N26          -5.530312   -5.396629    0.139796 N.pl3    1 SUBUNIT   -0.2703
     12 C24           1.643909   -2.455331    0.140641 C.3      1 SUBUNIT   -0.0249
     13 H26           1.350916   -5.267037    0.127151 H        1 SUBUNIT    0.0496
     14 H28          -6.407466   -4.925991    0.138931 H        1 SUBUNIT    0.1274
     15 H30          -5.505242   -6.398090    0.146655 H        1 SUBUNIT    0.1274
     16 N42          -3.125916   -1.220496    0.098850 N.pl3    1 SUBUNIT   -0.2849
     17 H44          -3.988881   -0.721888    0.080094 H        1 SUBUNIT    0.1258
     18 H36          -2.262788   -0.717939    0.101853 H        1 SUBUNIT    0.1258
@<TRIPOS>BOND
     1    1    2 2
     2    2    3 1
     3    3    4 2
     4    4    5 1
     5    5    6 2
     6    6    1 1
     7    7    8 2
     8    8    9 1
     9    9   10 2
    10    2   10 1
    11    3    7 1
    12    5   11 1
    13    9   12 1
    14    8   13 1
    15   11   14 1
    16   11   15 1
    17    1   16 1
    18   16   17 1
    19   16   18 1
@<SCITEGIC>ATOM_PROPERTY
Formal Charge
SciTegic.value.StringValue
1 0
2 0
3 0
4 0
5 0
6 0
7 0
8 0
9 0
10 0
11 0
12 0
13 0
14 0
15 0
16 0
17 0
18 0

@<SCITEGIC>ATOM_PROPERTY
pdb_tempFactor
SciTegic.value.DoubleValue
1 0.00
2 0.00
3 0.00
4 0.00
5 0.00
6 0.00
7 0.00
8 0.00
9 0.00
10 0.00
11 0.00
12 0.00
13 0.00
14 0.00
15 0.00
16 0.00
17 0.00
18 0.00

@<SCITEGIC>ATOM_PROPERTY
pdb_occupancy
SciTegic.value.DoubleValue
1 1.00
2 1.00
3 1.00
4 1.00
5 1.00
6 1.00
7 1.00
8 1.00
9 1.00
10 1.00
11 1.00
12 1.00
13 1.00
14 1.00
15 1.00
16 1.00
17 1.00
18 1.00

#	Copyright: drugdesign.org
#	Creation time:	2024-01-11T11:02:24Z

@<TRIPOS>MOLECULE
Molecule
    1     0     0 0 0
SMALL
USER_CHARGES


@<TRIPOS>ATOM
      1 C1           -7.864828   -2.149691   -0.148176 C.3      1 SUBUNIT    0.0000
@<SCITEGIC>ATOM_PROPERTY
Formal Charge
SciTegic.value.StringValue
1 0

@<SCITEGIC>ATOM_PROPERTY
pdb_tempFactor
SciTegic.value.DoubleValue
1 0.00

@<SCITEGIC>ATOM_PROPERTY
pdb_occupancy
SciTegic.value.DoubleValue
1 1.00

#	Copyright: drugdesign.org
#	Creation time:	2024-01-11T11:02:24Z

@<TRIPOS>MOLECULE
Molecule
    1     0     0 0 0
SMALL
USER_CHARGES


@<TRIPOS>ATOM
      1 C1           -1.330444   -1.897506    0.022339 C.3      1 SUBUNIT    0.0000
@<SCITEGIC>ATOM_PROPERTY
Formal Charge
SciTegic.value.StringValue
1 0

@<SCITEGIC>ATOM_PROPERTY
pdb_tempFactor
SciTegic.value.DoubleValue
1 0.00

@<SCITEGIC>ATOM_PROPERTY
pdb_occupancy
SciTegic.value.DoubleValue
1 1.00

