#	Copyright: drugdesign.org
#	Creation time:	2024-01-11T11:02:19Z

@<TRIPOS>MOLECULE
MORPHINE
    0     0     0 0 0
SMALL
USER_CHARGES


#	Copyright: drugdesign.org
#	Creation time:	2024-01-11T11:02:19Z

@<TRIPOS>MOLECULE
CODEINE
    0     0     0 0 0
SMALL
USER_CHARGES


#	Copyright: drugdesign.org
#	Creation time:	2024-01-11T11:02:19Z

@<TRIPOS>MOLECULE
Serotonin
   25    26     0 0 0
SMALL
USER_CHARGES


@<TRIPOS>ATOM
      1 H1           -0.575102    3.573426    2.446942 H        1 SUBUNIT    0.0666
      2 C2           -1.361008    4.094594    2.779666 C.ar     1 SUBUNIT   -0.0151
      3 C3           -3.602357    5.560087    3.730061 C.ar     1 SUBUNIT   -0.0204
      4 C4           -2.656086    3.615906    2.649980 C.ar     1 SUBUNIT    0.1165
      5 C5           -1.204679    5.338569    3.396800 C.ar     1 SUBUNIT   -0.0281
      6 C6           -2.308641    6.063715    3.864064 C.ar     1 SUBUNIT    0.0722
      7 C7           -3.731447    4.327375    3.112339 C.ar     1 SUBUNIT    0.0273
      8 N8           -3.095927    2.485967    2.110663 N.ar     1 SUBUNIT    0.2865
      9 H9           -0.286449    5.718904    3.506951 H        1 SUBUNIT    0.0651
     10 O10          -2.119863    7.305136    4.468015 O.3      1 SUBUNIT   -0.3609
     11 C11          -6.281556    4.011770    3.206709 C.3      1 SUBUNIT   -0.0115
     12 H12          -4.398414    6.064932    4.064015 H        1 SUBUNIT    0.0658
     13 H13          -1.156524    7.523926    4.484061 H        1 SUBUNIT    0.2182
     14 C14          -4.430571    2.422495    2.194357 C.ar     1 SUBUNIT    0.0748
     15 H15          -2.515202    1.786199    1.702958 H        1 SUBUNIT    0.2815
     16 H16          -5.010761    1.679677    1.860194 H        1 SUBUNIT    0.1060
     17 C17          -4.862598    3.586567    2.834899 C.ar     1 SUBUNIT    0.0005
     18 H18          -6.430085    3.750746    4.160628 H        1 SUBUNIT    0.0330
     19 C19          -7.466898    3.420445    2.371790 C.3      1 SUBUNIT   -0.0035
     20 H20          -6.325526    5.007282    3.122361 H        1 SUBUNIT    0.0330
     21 H21          -8.320246    3.636736    2.846161 H        1 SUBUNIT    0.0429
     22 N22          -7.410959    1.967503    2.171347 N.3      1 SUBUNIT   -0.3301
     23 H23          -7.464114    3.859135    1.473210 H        1 SUBUNIT    0.0429
     24 H24          -7.883716    1.495850    2.944966 H        1 SUBUNIT    0.1184
     25 H25          -7.858758    1.717185    1.278042 H        1 SUBUNIT    0.1184
@<TRIPOS>BOND
     1    2    1 1
     2    2    5 ar
     3    3    6 ar
     4    3    7 ar
     5    4    7 ar
     6    4    2 ar
     7    5    6 ar
     8    8    4 ar
     9    8   14 ar
    10   10    6 1
    11   22   19 1
    12   22   24 1
    13    3   12 1
    14    5    9 1
    15    7   17 ar
    16    8   15 1
    17   10   13 1
    18   11   18 1
    19   11   17 1
    20   11   19 1
    21   11   20 1
    22   14   16 1
    23   14   17 ar
    24   19   23 1
    25   19   21 1
    26   22   25 1
@<SCITEGIC>ATOM_PROPERTY
Formal Charge
SciTegic.value.StringValue
1 0
2 0
3 0
4 0
5 0
6 0
7 0
8 0
9 0
10 0
11 0
12 0
13 0
14 0
15 0
16 0
17 0
18 0
19 0
20 0
21 0
22 0
23 0
24 0
25 0

@<SCITEGIC>ATOM_PROPERTY
pdb_tempFactor
SciTegic.value.DoubleValue
1 0.00
2 0.00
3 0.00
4 0.00
5 0.00
6 0.00
7 0.00
8 0.00
9 0.00
10 0.00
11 0.00
12 0.00
13 0.00
14 0.00
15 0.00
16 0.00
17 0.00
18 0.00
19 0.00
20 0.00
21 0.00
22 0.00
23 0.00
24 0.00
25 0.00

@<SCITEGIC>ATOM_PROPERTY
pdb_occupancy
SciTegic.value.DoubleValue
1 1.00
2 1.00
3 1.00
4 1.00
5 1.00
6 1.00
7 1.00
8 1.00
9 1.00
10 1.00
11 1.00
12 1.00
13 1.00
14 1.00
15 1.00
16 1.00
17 1.00
18 1.00
19 1.00
20 1.00
21 1.00
22 1.00
23 1.00
24 1.00
25 1.00

#	Copyright: drugdesign.org
#	Creation time:	2024-01-11T11:02:19Z

@<TRIPOS>MOLECULE
Novocaine
   40    40     0 0 0
SMALL
USER_CHARGES


@<TRIPOS>ATOM
      1 C1           -3.647159    5.982712    2.986450 C.ar     1 SUBUNIT   -0.0473
      2 C2           -2.342113    6.447875    3.096037 C.ar     1 SUBUNIT    0.0471
      3 C3           -1.286463    5.685778    2.604336 C.ar     1 SUBUNIT   -0.0473
      4 C4           -1.543259    4.458562    2.001265 C.ar     1 SUBUNIT   -0.0436
      5 C5           -2.850820    3.993858    1.891473 C.ar     1 SUBUNIT    0.0118
      6 C6           -3.903359    4.755420    2.385563 C.ar     1 SUBUNIT   -0.0436
      7 C7           -2.101864    7.743800    3.723639 C.2      1 SUBUNIT    0.2927
      8 O8           -3.066311    8.407414    4.119145 O.2      1 SUBUNIT   -0.2607
      9 O9           -0.812523    8.250523    3.884904 O.3      1 SUBUNIT   -0.3121
     10 C10          -0.949024    9.550956    4.482947 C.3      1 SUBUNIT    0.0579
     11 C11           0.402701   10.168703    4.897702 C.3      1 SUBUNIT   -0.0161
     12 C12           0.112083   11.603586    5.414622 C.3      1 SUBUNIT    0.0003
     13 N13           1.315102   12.259624    5.982295 N.3      1 SUBUNIT   -0.3038
     14 C14           0.958023   13.633700    6.407938 C.3      1 SUBUNIT   -0.0047
     15 C15          -0.169156   13.596449    7.462902 C.3      1 SUBUNIT   -0.0524
     16 C16           2.394426   12.322960    4.977581 C.3      1 SUBUNIT   -0.0047
     17 C17           3.647848   12.982602    5.595796 C.3      1 SUBUNIT   -0.0524
     18 N18          -3.115139    2.732730    1.270052 N.pl3    1 SUBUNIT   -0.3026
     19 H19          -4.403798    6.532042    3.340756 H        1 SUBUNIT    0.0632
     20 H20          -0.347043    6.019054    2.684093 H        1 SUBUNIT    0.0632
     21 H21          -0.786901    3.909200    1.646057 H        1 SUBUNIT    0.0640
     22 H22          -4.842808    4.421398    2.309044 H        1 SUBUNIT    0.0640
     23 H23          -1.388774   10.160378    3.823150 H        1 SUBUNIT    0.0574
     24 H24          -1.524696    9.468617    5.296404 H        1 SUBUNIT    0.0574
     25 H25           0.821229    9.621701    5.622664 H        1 SUBUNIT    0.0303
     26 H26           1.018112   10.206314    4.110447 H        1 SUBUNIT    0.0303
     27 H27          -0.224576   12.156496    4.652391 H        1 SUBUNIT    0.0431
     28 H28          -0.589749   11.552008    6.125046 H        1 SUBUNIT    0.0431
     29 H29           1.763548   14.075777    6.802517 H        1 SUBUNIT    0.0428
     30 H30           0.647434   14.154350    5.612704 H        1 SUBUNIT    0.0428
     31 H31          -0.398408   14.529620    7.739522 H        1 SUBUNIT    0.0243
     32 H32           0.137848   13.078582    8.261331 H        1 SUBUNIT    0.0243
     33 H33          -0.977974   13.157025    7.071846 H        1 SUBUNIT    0.0243
     34 H34           2.621583   11.397002    4.675853 H        1 SUBUNIT    0.0428
     35 H35           2.087309   12.863398    4.194271 H        1 SUBUNIT    0.0428
     36 H36           4.375739   13.022996    4.911366 H        1 SUBUNIT    0.0243
     37 H37           3.957066   12.443137    6.379064 H        1 SUBUNIT    0.0243
     38 H38           3.422981   13.909095    5.897648 H        1 SUBUNIT    0.0243
     39 H39          -4.099545    2.557003    1.276787 H        1 SUBUNIT    0.1243
     40 H40          -2.644107    2.007655    1.772617 H        1 SUBUNIT    0.1243
@<TRIPOS>BOND
     1    1    2 ar
     2    2    3 ar
     3    3    4 ar
     4    4    5 ar
     5    5    6 ar
     6    6    1 ar
     7    2    7 1
     8    7    8 2
     9    7    9 1
    10    9   10 1
    11   10   11 1
    12   11   12 1
    13   12   13 1
    14   13   14 1
    15   14   15 1
    16   13   16 1
    17   16   17 1
    18    5   18 1
    19    1   19 1
    20    3   20 1
    21    4   21 1
    22    6   22 1
    23   10   23 1
    24   10   24 1
    25   11   25 1
    26   11   26 1
    27   12   27 1
    28   12   28 1
    29   14   29 1
    30   14   30 1
    31   15   31 1
    32   15   32 1
    33   15   33 1
    34   16   34 1
    35   16   35 1
    36   17   36 1
    37   17   37 1
    38   17   38 1
    39   18   39 1
    40   18   40 1
@<SCITEGIC>ATOM_PROPERTY
Formal Charge
SciTegic.value.StringValue
1 0
2 0
3 0
4 0
5 0
6 0
7 0
8 0
9 0
10 0
11 0
12 0
13 0
14 0
15 0
16 0
17 0
18 0
19 0
20 0
21 0
22 0
23 0
24 0
25 0
26 0
27 0
28 0
29 0
30 0
31 0
32 0
33 0
34 0
35 0
36 0
37 0
38 0
39 0
40 0

@<SCITEGIC>ATOM_PROPERTY
pdb_tempFactor
SciTegic.value.DoubleValue
1 0.00
2 0.00
3 0.00
4 0.00
5 0.00
6 0.00
7 0.00
8 0.00
9 0.00
10 0.00
11 0.00
12 0.00
13 0.00
14 0.00
15 0.00
16 0.00
17 0.00
18 0.00
19 0.00
20 0.00
21 0.00
22 0.00
23 0.00
24 0.00
25 0.00
26 0.00
27 0.00
28 0.00
29 0.00
30 0.00
31 0.00
32 0.00
33 0.00
34 0.00
35 0.00
36 0.00
37 0.00
38 0.00
39 0.00
40 0.00

@<SCITEGIC>ATOM_PROPERTY
pdb_occupancy
SciTegic.value.DoubleValue
1 1.00
2 1.00
3 1.00
4 1.00
5 1.00
6 1.00
7 1.00
8 1.00
9 1.00
10 1.00
11 1.00
12 1.00
13 1.00
14 1.00
15 1.00
16 1.00
17 1.00
18 1.00
19 1.00
20 1.00
21 1.00
22 1.00
23 1.00
24 1.00
25 1.00
26 1.00
27 1.00
28 1.00
29 1.00
30 1.00
31 1.00
32 1.00
33 1.00
34 1.00
35 1.00
36 1.00
37 1.00
38 1.00
39 1.00
40 1.00

