#	Copyright: drugdesign.org
#	Creation time:	2024-01-11T11:02:24Z

@<TRIPOS>MOLECULE
Molecule
   19    20     0 0 0
SMALL
USER_CHARGES


@<TRIPOS>ATOM
      1 C1           -3.458493   -2.862393    0.147430 C.2      1 SUBUNIT    0.2710
      2 C2           -2.218646   -3.611506    0.146966 C.2      1 SUBUNIT    0.1627
      3 C3           -2.263435   -4.941265    0.144616 C.2      1 SUBUNIT    0.1404
      4 N4           -3.517275   -5.612220    0.143793 N.2      1 SUBUNIT   -0.2079
      5 C5           -4.632013   -4.980317    0.143686 C.2      1 SUBUNIT    0.1706
      6 N6           -4.651962   -3.563914    0.146367 N.am     1 SUBUNIT   -0.2550
      7 N13          -1.075245   -5.690879    0.143027 N.pl3    1 SUBUNIT   -0.2653
      8 C14           0.213458   -5.046763    0.130219 C.3      1 SUBUNIT    0.0397
      9 C15           0.115392   -3.534095    0.145045 C.2      1 SUBUNIT    0.0301
     10 N16          -1.006980   -2.933162    0.151147 N.2      1 SUBUNIT   -0.2479
     11 O22          -3.450055   -1.624493    0.145823 O.2      1 SUBUNIT   -0.2695
     12 H24          -5.515533   -3.071492    0.147993 H        1 SUBUNIT    0.1586
     13 N26          -5.841769   -5.703763    0.147286 N.pl3    1 SUBUNIT   -0.2739
     14 C28           1.378967   -2.716710    0.151745 C.3      1 SUBUNIT   -0.0249
     15 H30          -1.123439   -6.681511    0.148997 H        1 SUBUNIT    0.1301
     16 H32           0.725615   -5.341373    0.937003 H        1 SUBUNIT    0.0496
     17 H34           0.702145   -5.326889   -0.696047 H        1 SUBUNIT    0.0496
     18 H36          -6.716322   -5.221886    0.148691 H        1 SUBUNIT    0.1271
     19 H38          -5.826006   -6.702936    0.148392 H        1 SUBUNIT    0.1271
@<TRIPOS>BOND
     1    1    2 1
     2    2    3 2
     3    3    4 1
     4    4    5 2
     5    5    6 1
     6    6    1 1
     7    7    8 1
     8    8    9 1
     9    9   10 2
    10    2   10 1
    11    3    7 1
    12    1   11 2
    13    6   12 1
    14    5   13 1
    15    9   14 1
    16    7   15 1
    17    8   16 1
    18    8   17 1
    19   13   18 1
    20   13   19 1
@<SCITEGIC>ATOM_PROPERTY
Formal Charge
SciTegic.value.StringValue
1 0
2 0
3 0
4 0
5 0
6 0
7 0
8 0
9 0
10 0
11 0
12 0
13 0
14 0
15 0
16 0
17 0
18 0
19 0

@<SCITEGIC>ATOM_PROPERTY
pdb_tempFactor
SciTegic.value.DoubleValue
1 0.00
2 0.00
3 0.00
4 0.00
5 0.00
6 0.00
7 0.00
8 0.00
9 0.00
10 0.00
11 0.00
12 0.00
13 0.00
14 0.00
15 0.00
16 0.00
17 0.00
18 0.00
19 0.00

@<SCITEGIC>ATOM_PROPERTY
pdb_occupancy
SciTegic.value.DoubleValue
1 1.00
2 1.00
3 1.00
4 1.00
5 1.00
6 1.00
7 1.00
8 1.00
9 1.00
10 1.00
11 1.00
12 1.00
13 1.00
14 1.00
15 1.00
16 1.00
17 1.00
18 1.00
19 1.00

#	Copyright: drugdesign.org
#	Creation time:	2024-01-11T11:02:24Z

@<TRIPOS>MOLECULE
Molecule
   18    19     0 0 0
SMALL
USER_CHARGES


@<TRIPOS>ATOM
      1 C1            5.624060   -2.912708    0.371396 C.2      1 SUBUNIT    0.1354
      2 C2            6.777353   -3.579346    0.384391 C.2      1 SUBUNIT    0.1365
      3 C3            6.756701   -5.018643    0.394593 C.2      1 SUBUNIT    0.1385
      4 N4            5.644121   -5.635277    0.396538 N.2      1 SUBUNIT   -0.2042
      5 C5            4.422248   -4.931575    0.388574 C.2      1 SUBUNIT    0.2004
      6 N6            4.408432   -3.649086    0.375408 N.2      1 SUBUNIT   -0.2045
      7 N13           7.952013   -5.731376    0.398203 N.2      1 SUBUNIT   -0.2653
      8 C14           9.219985   -5.052637    0.389537 C.2      1 SUBUNIT    0.0397
      9 C15           9.114912   -3.525255    0.391547 C.2      1 SUBUNIT    0.0300
     10 N16           7.994966   -2.904673    0.386397 N.2      1 SUBUNIT   -0.2500
     11 N26           3.213759   -5.666312    0.395423 N.pl3    1 SUBUNIT   -0.2703
     12 C24          10.387972   -2.725014    0.396268 C.3      1 SUBUNIT   -0.0249
     13 H26          10.094981   -5.536720    0.382779 H        1 SUBUNIT    0.0496
     14 H28           2.336605   -5.195674    0.394559 H        1 SUBUNIT    0.1274
     15 H30           3.238829   -6.667773    0.402283 H        1 SUBUNIT    0.1274
     16 N42           5.618153   -1.490179    0.354478 N.pl3    1 SUBUNIT   -0.2849
     17 H44           4.755188   -0.991573    0.335722 H        1 SUBUNIT    0.1258
     18 H36           6.481281   -0.987624    0.357481 H        1 SUBUNIT    0.1258
@<TRIPOS>BOND
     1    1    2 2
     2    2    3 1
     3    3    4 2
     4    4    5 1
     5    5    6 2
     6    6    1 1
     7    7    8 2
     8    8    9 1
     9    9   10 2
    10    2   10 1
    11    3    7 1
    12    5   11 1
    13    9   12 1
    14    8   13 1
    15   11   14 1
    16   11   15 1
    17    1   16 1
    18   16   17 1
    19   16   18 1
@<SCITEGIC>ATOM_PROPERTY
Formal Charge
SciTegic.value.StringValue
1 0
2 0
3 0
4 0
5 0
6 0
7 0
8 0
9 0
10 0
11 0
12 0
13 0
14 0
15 0
16 0
17 0
18 0

@<SCITEGIC>ATOM_PROPERTY
pdb_tempFactor
SciTegic.value.DoubleValue
1 0.00
2 0.00
3 0.00
4 0.00
5 0.00
6 0.00
7 0.00
8 0.00
9 0.00
10 0.00
11 0.00
12 0.00
13 0.00
14 0.00
15 0.00
16 0.00
17 0.00
18 0.00

@<SCITEGIC>ATOM_PROPERTY
pdb_occupancy
SciTegic.value.DoubleValue
1 1.00
2 1.00
3 1.00
4 1.00
5 1.00
6 1.00
7 1.00
8 1.00
9 1.00
10 1.00
11 1.00
12 1.00
13 1.00
14 1.00
15 1.00
16 1.00
17 1.00
18 1.00

#	Copyright: drugdesign.org
#	Creation time:	2024-01-11T11:02:24Z

@<TRIPOS>MOLECULE
Molecule
    1     0     0 0 0
SMALL
USER_CHARGES


@<TRIPOS>ATOM
      1 C1           -5.068178   -0.699085   -0.116694 C.3      1 SUBUNIT    0.0000
@<SCITEGIC>ATOM_PROPERTY
Formal Charge
SciTegic.value.StringValue
1 0

@<SCITEGIC>ATOM_PROPERTY
pdb_tempFactor
SciTegic.value.DoubleValue
1 0.00

@<SCITEGIC>ATOM_PROPERTY
pdb_occupancy
SciTegic.value.DoubleValue
1 1.00

#	Copyright: drugdesign.org
#	Creation time:	2024-01-11T11:02:24Z

@<TRIPOS>MOLECULE
Molecule
    1     0     0 0 0
SMALL
USER_CHARGES


@<TRIPOS>ATOM
      1 C1            4.084074   -0.490809    0.126615 C.3      1 SUBUNIT    0.0000
@<SCITEGIC>ATOM_PROPERTY
Formal Charge
SciTegic.value.StringValue
1 0

@<SCITEGIC>ATOM_PROPERTY
pdb_tempFactor
SciTegic.value.DoubleValue
1 0.00

@<SCITEGIC>ATOM_PROPERTY
pdb_occupancy
SciTegic.value.DoubleValue
1 1.00

