#	Copyright: drugdesign.org
#	Creation time:	2024-01-11T11:02:25Z

@<TRIPOS>MOLECULE
Molecule
   17    18     0 0 0
SMALL
USER_CHARGES


@<TRIPOS>ATOM
      1 C1           -3.861742   -3.307166    0.197442 C.2      1 SUBUNIT    0.2710
      2 C2           -2.621896   -4.056279    0.196978 C.2      1 SUBUNIT    0.1627
      3 C3           -2.666684   -5.386038    0.194628 C.2      1 SUBUNIT    0.1404
      4 N4           -3.920524   -6.056993    0.193805 N.2      1 SUBUNIT   -0.2079
      5 C5           -5.035263   -5.425090    0.193698 C.2      1 SUBUNIT    0.1706
      6 N6           -5.055211   -4.008687    0.196379 N.am     1 SUBUNIT   -0.2550
      7 N13          -1.478494   -6.135652    0.193039 N.pl3    1 SUBUNIT   -0.2653
      8 C14          -0.189791   -5.491536    0.180231 C.3      1 SUBUNIT    0.0397
      9 C15          -0.287857   -3.978868    0.195057 C.2      1 SUBUNIT    0.0301
     10 N16          -1.410229   -3.377935    0.201159 N.2      1 SUBUNIT   -0.2479
     11 O22          -3.853304   -2.069266    0.195835 O.2      1 SUBUNIT   -0.2695
     12 H24          -5.918783   -3.516265    0.198005 H        1 SUBUNIT    0.1586
     13 N26          -6.245019   -6.148536    0.197298 N.pl3    1 SUBUNIT   -0.2739
     14 C28           0.975718   -3.161483    0.201757 C.3      1 SUBUNIT   -0.0249
     15 H30          -1.526689   -7.126284    0.199009 H        1 SUBUNIT    0.1301
     16 H32          -7.119572   -5.666658    0.198703 H        1 SUBUNIT    0.1271
     17 H34          -6.229256   -7.147708    0.198404 H        1 SUBUNIT    0.1271
@<TRIPOS>BOND
     1    1    2 1
     2    2    3 2
     3    3    4 1
     4    4    5 2
     5    5    6 1
     6    6    1 1
     7    7    8 1
     8    8    9 1
     9    9   10 2
    10    2   10 1
    11    3    7 1
    12    1   11 2
    13    6   12 1
    14    5   13 1
    15    9   14 1
    16    7   15 1
    17   13   16 1
    18   13   17 1
@<SCITEGIC>ATOM_PROPERTY
Formal Charge
SciTegic.value.StringValue
1 0
2 0
3 0
4 0
5 0
6 0
7 0
8 0
9 0
10 0
11 0
12 0
13 0
14 0
15 0
16 0
17 0

@<SCITEGIC>ATOM_PROPERTY
pdb_tempFactor
SciTegic.value.DoubleValue
1 0.00
2 0.00
3 0.00
4 0.00
5 0.00
6 0.00
7 0.00
8 0.00
9 0.00
10 0.00
11 0.00
12 0.00
13 0.00
14 0.00
15 0.00
16 0.00
17 0.00

@<SCITEGIC>ATOM_PROPERTY
pdb_occupancy
SciTegic.value.DoubleValue
1 1.00
2 1.00
3 1.00
4 1.00
5 1.00
6 1.00
7 1.00
8 1.00
9 1.00
10 1.00
11 1.00
12 1.00
13 1.00
14 1.00
15 1.00
16 1.00
17 1.00

#	Copyright: drugdesign.org
#	Creation time:	2024-01-11T11:02:25Z

@<TRIPOS>MOLECULE
Molecule
   18    19     0 0 0
SMALL
USER_CHARGES


@<TRIPOS>ATOM
      1 C1           -2.780056   -5.887982    0.351471 C.2      1 SUBUNIT    0.1354
      2 C2           -2.535159   -4.578528    0.348770 C.2      1 SUBUNIT    0.1365
      3 C3           -3.641035   -3.657048    0.351129 C.2      1 SUBUNIT    0.1385
      4 N4           -4.833463   -4.099985    0.350316 N.pl3    1 SUBUNIT   -0.2042
      5 C5           -5.094913   -5.485577    0.347393 C.2      1 SUBUNIT    0.2004
      6 N6           -4.130468   -6.331158    0.349243 N.2      1 SUBUNIT   -0.2045
      7 N13          -3.403721   -2.285764    0.358378 N.2      1 SUBUNIT   -0.2653
      8 C14          -2.062956   -1.765377    0.365966 C.2      1 SUBUNIT    0.0397
      9 C15          -0.972135   -2.839525    0.350142 C.2      1 SUBUNIT    0.0300
     10 N16          -1.230307   -4.093621    0.345529 N.2      1 SUBUNIT   -0.2500
     11 N26          -6.439443   -5.924377    0.342343 N.pl3    1 SUBUNIT   -0.2703
     12 C24           0.460417   -2.383154    0.344534 C.3      1 SUBUNIT   -0.0249
     13 H26          -6.653352   -6.896538    0.335695 H        1 SUBUNIT    0.1274
     14 H28          -7.183223   -5.253278    0.344372 H        1 SUBUNIT    0.1274
     15 N42          -1.704168   -6.818767    0.355869 N.pl3    1 SUBUNIT   -0.2849
     16 H44          -1.887543   -7.798517    0.366927 H        1 SUBUNIT    0.1258
     17 H34          -0.760764   -6.490833    0.351784 H        1 SUBUNIT    0.1258
     18 H36          -5.651281   -3.410007    0.351874 H        1 SUBUNIT    0.0000
@<TRIPOS>BOND
     1    1    2 2
     2    2    3 1
     3    3    4 2
     4    4    5 1
     5    5    6 2
     6    6    1 1
     7    7    8 2
     8    8    9 1
     9    9   10 2
    10    2   10 1
    11    3    7 1
    12    5   11 1
    13    9   12 1
    14   11   13 1
    15   11   14 1
    16    1   15 1
    17   15   16 1
    18   15   17 1
    19    4   18 1
@<SCITEGIC>ATOM_PROPERTY
Formal Charge
SciTegic.value.StringValue
1 0
2 0
3 0
4 0
5 0
6 0
7 0
8 0
9 0
10 0
11 0
12 0
13 0
14 0
15 0
16 0
17 0
18 0

@<SCITEGIC>ATOM_PROPERTY
pdb_tempFactor
SciTegic.value.DoubleValue
1 0.00
2 0.00
3 0.00
4 0.00
5 0.00
6 0.00
7 0.00
8 0.00
9 0.00
10 0.00
11 0.00
12 0.00
13 0.00
14 0.00
15 0.00
16 0.00
17 0.00
18 0.00

@<SCITEGIC>ATOM_PROPERTY
pdb_occupancy
SciTegic.value.DoubleValue
1 1.00
2 1.00
3 1.00
4 1.00
5 1.00
6 1.00
7 1.00
8 1.00
9 1.00
10 1.00
11 1.00
12 1.00
13 1.00
14 1.00
15 1.00
16 1.00
17 1.00
18 1.00

#	Copyright: drugdesign.org
#	Creation time:	2024-01-11T11:02:25Z

@<TRIPOS>MOLECULE
Molecule
    1     0     0 0 0
SMALL
USER_CHARGES


@<TRIPOS>ATOM
      1 C1           -7.097899   -3.456925    0.201432 C.3      1 SUBUNIT    0.0000
@<SCITEGIC>ATOM_PROPERTY
Formal Charge
SciTegic.value.StringValue
1 0

@<SCITEGIC>ATOM_PROPERTY
pdb_tempFactor
SciTegic.value.DoubleValue
1 0.00

@<SCITEGIC>ATOM_PROPERTY
pdb_occupancy
SciTegic.value.DoubleValue
1 1.00

#	Copyright: drugdesign.org
#	Creation time:	2024-01-11T11:02:25Z

@<TRIPOS>MOLECULE
Molecule
    1     0     0 0 0
SMALL
USER_CHARGES


@<TRIPOS>ATOM
      1 C1           -1.733694   -2.342279    0.072351 C.3      1 SUBUNIT    0.0000
@<SCITEGIC>ATOM_PROPERTY
Formal Charge
SciTegic.value.StringValue
1 0

@<SCITEGIC>ATOM_PROPERTY
pdb_tempFactor
SciTegic.value.DoubleValue
1 0.00

@<SCITEGIC>ATOM_PROPERTY
pdb_occupancy
SciTegic.value.DoubleValue
1 1.00

