#	Copyright: drugdesign.org
#	Creation time:	2024-01-11T11:02:29Z

@<SCITEGIC>ROOT_PROPERTY
Ligand:MaximumNumberOfAtoms
SciTegic.value.IntegerValue
100

@<SCITEGIC>ROOT_PROPERTY
Ligand:HydrogenAtomsCountTowardsMaximum
SciTegic.value.BooleanValue
FALSE

@<TRIPOS>MOLECULE
1.sd
   31    34     0 0 0
SMALL
USER_CHARGES


@<TRIPOS>ATOM
      1 O1            5.741833    5.562712   -1.958606 O.2      1 SUBUNIT   -0.2665
      2 C2            5.338300    4.480587   -1.565177 C.2      1 SUBUNIT    0.2613
      3 C3            3.913652    4.217824   -1.220632 C.2      1 SUBUNIT    0.0862
      4 C4            3.428918    3.037650   -0.824163 C.2      1 SUBUNIT    0.0179
      5 C5            2.008392    2.764968   -0.499564 C.2      1 SUBUNIT   -0.0041
      6 C6            1.031439    3.822086   -1.022709 C.3      1 SUBUNIT   -0.0266
      7 C7            1.639948    5.219464   -0.734140 C.3      1 SUBUNIT    0.0080
      8 C8            3.027659    5.435400   -1.361877 C.3      1 SUBUNIT    0.0145
      9 C9           -0.345148    3.678964   -0.281335 C.3      1 SUBUNIT   -0.0015
     10 C10          -0.816412    2.198098   -0.178236 C.3      1 SUBUNIT   -0.0038
     11 C11           0.227977    1.352058    0.571174 C.3      1 SUBUNIT    0.0043
     12 C12           1.644681    1.684973    0.192662 C.2      1 SUBUNIT    0.0043
     13 C13          -1.470304    4.621033   -0.804366 C.3      1 SUBUNIT    0.0049
     14 C14          -2.826823    4.427654   -0.096588 C.3      1 SUBUNIT    0.0080
     15 C15          -3.297162    2.961276   -0.126556 C.3      1 SUBUNIT   -0.0181
     16 C16          -2.192344    2.105202    0.523248 C.3      1 SUBUNIT   -0.0010
     17 C17          -4.466785    2.607440    0.827345 C.3      1 SUBUNIT    0.0821
     18 C18          -4.291000    1.101651    1.137779 C.3      1 SUBUNIT    0.0140
     19 C19          -2.834264    0.739865    0.808445 C.3      1 SUBUNIT    0.0051
     20 C20           0.874022    3.625158   -2.552981 C.3      1 SUBUNIT    0.0118
     21 C21          -3.642809    2.525109   -1.575494 C.3      1 SUBUNIT    0.0123
     22 C22          -5.884297    3.049669    0.450541 C.2      1 SUBUNIT    0.2157
     23 O23          -6.673637    2.274582   -0.065180 O.2      1 SUBUNIT   -0.2773
     24 N24          -6.182772    4.319496    0.741566 N.am     1 SUBUNIT   -0.3104
     25 C25          -7.452116    4.966828    0.393402 C.3      1 SUBUNIT    0.0252
     26 C26          -8.494502    4.679481    1.487971 C.3      1 SUBUNIT    0.0313
     27 C27          -7.189689    6.482997    0.364556 C.3      1 SUBUNIT    0.0313
     28 C28          -8.031572    4.584335   -0.985478 C.3      1 SUBUNIT    0.0313
     29 O29           6.179997    3.480969   -1.431350 O.3      1 SUBUNIT   -0.3315
     30 H30          -5.574468    4.810915    1.185754 H        1 SUBUNIT    0.1499
     31 H31           7.061325    3.740852   -1.673993 H        1 SUBUNIT    0.2214
@<TRIPOS>BOND
     1    1    2 2
     2    2    3 1
     3    2   29 1
     4    3    4 2
     5    3    8 1
     6    4    5 1
     7    5    6 1
     8    5   12 2
     9    6    7 1
    10    6    9 1
    11    6   20 1
    12    7    8 1
    13    9   10 1
    14    9   13 1
    15   10   11 1
    16   10   16 1
    17   11   12 1
    18   13   14 1
    19   14   15 1
    20   15   16 1
    21   15   17 1
    22   15   21 1
    23   16   19 1
    24   17   18 1
    25   17   22 1
    26   18   19 1
    27   22   23 2
    28   22   24 1
    29   24   25 1
    30   24   30 1
    31   25   26 1
    32   25   27 1
    33   25   28 1
    34   29   31 1
@<SCITEGIC>ATOM_PROPERTY
Formal Charge
SciTegic.value.StringValue
1 0
2 0
3 0
4 0
5 0
6 0
7 0
8 0
9 0
10 0
11 0
12 0
13 0
14 0
15 0
16 0
17 0
18 0
19 0
20 0
21 0
22 0
23 0
24 0
25 0
26 0
27 0
28 0
29 0
30 0
31 0

@<SCITEGIC>ATOM_PROPERTY
pdb_tempFactor
SciTegic.value.DoubleValue
1 0.00
2 0.00
3 0.00
4 0.00
5 0.00
6 0.00
7 0.00
8 0.00
9 0.00
10 0.00
11 0.00
12 0.00
13 0.00
14 0.00
15 0.00
16 0.00
17 0.00
18 0.00
19 0.00
20 0.00
21 0.00
22 0.00
23 0.00
24 0.00
25 0.00
26 0.00
27 0.00
28 0.00
29 0.00
30 0.00
31 0.00

@<SCITEGIC>ATOM_PROPERTY
pdb_occupancy
SciTegic.value.DoubleValue
1 1.00
2 1.00
3 1.00
4 1.00
5 1.00
6 1.00
7 1.00
8 1.00
9 1.00
10 1.00
11 1.00
12 1.00
13 1.00
14 1.00
15 1.00
16 1.00
17 1.00
18 1.00
19 1.00
20 1.00
21 1.00
22 1.00
23 1.00
24 1.00
25 1.00
26 1.00
27 1.00
28 1.00
29 1.00
30 1.00
31 1.00

#	Copyright: drugdesign.org
#	Creation time:	2024-01-11T11:02:29Z

@<SCITEGIC>ROOT_PROPERTY
Ligand:MaximumNumberOfAtoms
SciTegic.value.IntegerValue
100

@<SCITEGIC>ROOT_PROPERTY
Ligand:HydrogenAtomsCountTowardsMaximum
SciTegic.value.BooleanValue
FALSE

@<TRIPOS>MOLECULE
1.sd
   28    30     0 0 0
SMALL
USER_CHARGES


@<TRIPOS>ATOM
      1 O1           -7.031191   -2.167086    2.013296 O.2      1 SUBUNIT   -0.2665
      2 C2           -6.480627   -2.771415    1.108818 C.2      1 SUBUNIT    0.2613
      3 O3           -7.165683   -3.629997    0.386810 O.3      1 SUBUNIT   -0.3315
      4 C4           -5.207137   -2.627336    0.787718 C.ar     1 SUBUNIT    0.0860
      5 C5           -4.651937   -3.364747   -0.271906 C.ar     1 SUBUNIT    0.0155
      6 C6           -3.296710   -3.204483   -0.605403 C.ar     1 SUBUNIT    0.0198
      7 C7           -2.496697   -2.306805    0.120720 C.ar     1 SUBUNIT    0.0566
      8 C8           -3.051899   -1.569395    1.180342 C.ar     1 SUBUNIT    0.0198
      9 C9           -4.407067   -1.730354    1.513125 C.ar     1 SUBUNIT    0.0155
     10 H10          -8.069010   -3.677035    0.679016 H        1 SUBUNIT    0.2214
     11 C11           3.438344   -1.579563   -1.304620 C.3      1 SUBUNIT    0.1010
     12 C12           4.768822   -1.234927   -0.664992 C.2      1 SUBUNIT    0.2124
     13 O13           5.679928   -2.046792   -0.623675 O.2      1 SUBUNIT   -0.2777
     14 N14           4.863663    0.004988   -0.178201 N.am     1 SUBUNIT   -0.3107
     15 C15           6.030367    0.515100    0.549847 C.3      1 SUBUNIT    0.0252
     16 C16           7.074146    1.041568   -0.451633 C.3      1 SUBUNIT    0.0313
     17 C17           5.544704    1.698738    1.404750 C.3      1 SUBUNIT    0.0313
     18 C18           6.699971   -0.489171    1.512767 C.3      1 SUBUNIT    0.0313
     19 C19           0.414922   -1.097713   -1.504454 C.2      1 SUBUNIT    0.0209
     20 C20          -0.859360   -1.130209   -1.331650 C.2      1 SUBUNIT    0.0852
     21 N21          -1.112617   -2.065144   -0.294893 N.pl3    1 SUBUNIT   -0.2971
     22 C22           0.114626   -2.613825    0.164362 C.ar     1 SUBUNIT    0.0600
     23 C23           1.091316   -2.015537   -0.585589 C.ar     1 SUBUNIT    0.0110
     24 C24           0.419187   -3.551509    1.144637 C.ar     1 SUBUNIT    0.0193
     25 C25           1.765841   -3.874931    1.349023 C.ar     1 SUBUNIT    0.0019
     26 C26           2.769074   -3.262000    0.579911 C.ar     1 SUBUNIT    0.0043
     27 C27           2.436201   -2.319512   -0.401522 C.ar     1 SUBUNIT    0.0027
     28 H28           4.082950    0.631927   -0.319461 H        1 SUBUNIT    0.1499
@<TRIPOS>BOND
     1    1    2 2
     2    2    3 1
     3    2    4 1
     4    3   10 1
     5    4    5 ar
     6    4    9 ar
     7    5    6 ar
     8    6    7 ar
     9    7    8 ar
    10    7   21 1
    11    8    9 ar
    12   11   12 1
    13   11   27 1
    14   12   13 2
    15   12   14 1
    16   14   15 1
    17   14   28 1
    18   15   16 1
    19   15   17 1
    20   15   18 1
    21   19   20 2
    22   19   23 1
    23   20   21 1
    24   21   22 1
    25   22   23 ar
    26   22   24 ar
    27   23   27 ar
    28   24   25 ar
    29   25   26 ar
    30   26   27 ar
@<SCITEGIC>ATOM_PROPERTY
Formal Charge
SciTegic.value.StringValue
1 0
2 0
3 0
4 0
5 0
6 0
7 0
8 0
9 0
10 0
11 0
12 0
13 0
14 0
15 0
16 0
17 0
18 0
19 0
20 0
21 0
22 0
23 0
24 0
25 0
26 0
27 0
28 0

@<SCITEGIC>ATOM_PROPERTY
pdb_tempFactor
SciTegic.value.DoubleValue
1 0.00
2 0.00
3 0.00
4 0.00
5 0.00
6 0.00
7 0.00
8 0.00
9 0.00
10 0.00
11 0.00
12 0.00
13 0.00
14 0.00
15 0.00
16 0.00
17 0.00
18 0.00
19 0.00
20 0.00
21 0.00
22 0.00
23 0.00
24 0.00
25 0.00
26 0.00
27 0.00
28 0.00

@<SCITEGIC>ATOM_PROPERTY
pdb_occupancy
SciTegic.value.DoubleValue
1 1.00
2 1.00
3 1.00
4 1.00
5 1.00
6 1.00
7 1.00
8 1.00
9 1.00
10 1.00
11 1.00
12 1.00
13 1.00
14 1.00
15 1.00
16 1.00
17 1.00
18 1.00
19 1.00
20 1.00
21 1.00
22 1.00
23 1.00
24 1.00
25 1.00
26 1.00
27 1.00
28 1.00

#	Copyright: drugdesign.org
#	Creation time:	2024-01-11T11:02:29Z

@<SCITEGIC>ROOT_PROPERTY
Ligand:MaximumNumberOfAtoms
SciTegic.value.IntegerValue
100

@<SCITEGIC>ROOT_PROPERTY
Ligand:HydrogenAtomsCountTowardsMaximum
SciTegic.value.BooleanValue
FALSE

@<TRIPOS>MOLECULE
Molecule
    0     0     0 0 0
SMALL
USER_CHARGES


