#	Copyright: drugdesign.org
#	Creation time:	2024-01-11T11:02:18Z

@<SCITEGIC>ROOT_PROPERTY
Ligand:MaximumNumberOfAtoms
SciTegic.value.IntegerValue
100

@<SCITEGIC>ROOT_PROPERTY
Ligand:HydrogenAtomsCountTowardsMaximum
SciTegic.value.BooleanValue
FALSE

@<TRIPOS>MOLECULE
concept1.sd
   32    35     0 0 0
SMALL
USER_CHARGES


@<TRIPOS>ATOM
      1 C1            1.357100   -0.210200   -1.131400 C.2      1 SUBUNIT    0.3044
      2 N2            0.063500   -0.128800   -1.636800 N.am     1 SUBUNIT   -0.2753
      3 N3            1.662700   -0.530800    0.224500 N.am     1 SUBUNIT   -0.2778
      4 O4            2.297100    0.048100   -1.960900 O.2      1 SUBUNIT   -0.2538
      5 C5           -1.217200    0.192600   -0.838400 C.3      1 SUBUNIT    0.1110
      6 C6           -0.032100   -0.118500   -3.180500 C.3      1 SUBUNIT    0.1453
      7 C7            0.788500   -1.335600    1.208700 C.3      1 SUBUNIT    0.0849
      8 C8            3.064700   -0.152000    0.716100 C.3      1 SUBUNIT    0.1452
      9 C9           -1.643100   -0.806700    0.296100 C.3      1 SUBUNIT    0.1368
     10 C10          -1.204300    1.699900   -0.429000 C.3      1 SUBUNIT    0.0607
     11 C12          -0.659500   -0.750300    1.537800 C.3      1 SUBUNIT    0.0566
     12 C13           0.868700   -2.872300    0.813600 C.3      1 SUBUNIT    0.0581
     13 C14           3.247500    0.482300    2.144100 C.ar     1 SUBUNIT   -0.0305
     14 O15          -3.010800   -0.394600    0.612200 O.3      1 SUBUNIT   -0.3910
     15 C16          -1.383400    2.641500   -1.703800 C.ar     1 SUBUNIT   -0.0460
     16 C19           2.320600   -3.487700    1.051600 C.ar     1 SUBUNIT   -0.0461
     17 C20           4.421700    0.037600    2.959200 C.ar     1 SUBUNIT    0.0054
     18 C21           2.327700    1.522300    2.634400 C.ar     1 SUBUNIT    0.0054
     19 H22          -3.264100   -0.854000    1.447000 H        1 SUBUNIT    0.2105
     20 C23          -0.229700    3.392500   -2.222700 C.ar     1 SUBUNIT    0.0036
     21 C24          -2.695600    2.748000   -2.380700 C.ar     1 SUBUNIT    0.0036
     22 C27           2.844900   -3.631500    2.449500 C.ar     1 SUBUNIT    0.0036
     23 C28           3.198400   -3.770500   -0.109100 C.ar     1 SUBUNIT    0.0036
     24 C29           4.675800    0.653000    4.257900 C.ar     1 SUBUNIT    0.0039
     25 C30           2.579600    2.138200    3.935800 C.ar     1 SUBUNIT    0.0039
     26 C31          -0.387200    4.245300   -3.418100 C.ar     1 SUBUNIT    0.0003
     27 C32          -2.861600    3.609000   -3.581600 C.ar     1 SUBUNIT    0.0003
     28 C34           4.265400   -4.014700    2.664700 C.ar     1 SUBUNIT    0.0003
     29 C35           4.611500   -4.163700    0.115100 C.ar     1 SUBUNIT    0.0003
     30 C36           3.763400    1.703100    4.739100 C.ar     1 SUBUNIT   -0.0467
     31 C37          -1.700000    4.354000   -4.093000 C.ar     1 SUBUNIT    0.0000
     32 C39           5.141900   -4.274900    1.495500 C.ar     1 SUBUNIT    0.0000
@<TRIPOS>BOND
     1    1    2 1
     2    1    3 1
     3    1    4 2
     4    2    5 1
     5    2    6 1
     6    3    7 1
     7    3    8 1
     8    5    9 1
     9    5   10 1
    10    7   11 1
    11    7   12 1
    12    8   13 1
    13    9   11 1
    14    9   14 1
    15   10   15 1
    16   12   16 1
    17   13   17 ar
    18   13   18 ar
    19   14   19 1
    20   15   20 ar
    21   15   21 ar
    22   16   22 ar
    23   16   23 ar
    24   17   24 ar
    25   18   25 ar
    26   20   26 ar
    27   21   27 ar
    28   22   28 ar
    29   23   29 ar
    30   24   30 ar
    31   25   30 ar
    32   26   31 ar
    33   27   31 ar
    34   28   32 ar
    35   29   32 ar
@<SCITEGIC>ATOM_PROPERTY
Formal Charge
SciTegic.value.StringValue
1 0
2 0
3 0
4 0
5 0
6 0
7 0
8 0
9 0
10 0
11 0
12 0
13 0
14 0
15 0
16 0
17 0
18 0
19 0
20 0
21 0
22 0
23 0
24 0
25 0
26 0
27 0
28 0
29 0
30 0
31 0
32 0

@<SCITEGIC>ATOM_PROPERTY
pdb_tempFactor
SciTegic.value.DoubleValue
1 0.00
2 0.00
3 0.00
4 0.00
5 0.00
6 0.00
7 0.00
8 0.00
9 0.00
10 0.00
11 0.00
12 0.00
13 0.00
14 0.00
15 0.00
16 0.00
17 0.00
18 0.00
19 0.00
20 0.00
21 0.00
22 0.00
23 0.00
24 0.00
25 0.00
26 0.00
27 0.00
28 0.00
29 0.00
30 0.00
31 0.00
32 0.00

@<SCITEGIC>ATOM_PROPERTY
pdb_occupancy
SciTegic.value.DoubleValue
1 1.00
2 1.00
3 1.00
4 1.00
5 1.00
6 1.00
7 1.00
8 1.00
9 1.00
10 1.00
11 1.00
12 1.00
13 1.00
14 1.00
15 1.00
16 1.00
17 1.00
18 1.00
19 1.00
20 1.00
21 1.00
22 1.00
23 1.00
24 1.00
25 1.00
26 1.00
27 1.00
28 1.00
29 1.00
30 1.00
31 1.00
32 1.00

#	Copyright: drugdesign.org
#	Creation time:	2024-01-11T11:02:18Z

@<SCITEGIC>ROOT_PROPERTY
Ligand:MaximumNumberOfAtoms
SciTegic.value.IntegerValue
100

@<SCITEGIC>ROOT_PROPERTY
Ligand:HydrogenAtomsCountTowardsMaximum
SciTegic.value.BooleanValue
FALSE

@<TRIPOS>MOLECULE
concept1.sd
   33    37     0 0 0
SMALL
USER_CHARGES


@<TRIPOS>ATOM
      1 C1            3.207771    0.683241    1.904269 C.ar     1 SUBUNIT   -0.0330
      2 C2            4.414572    0.272841    2.667768 C.ar     1 SUBUNIT    0.0052
      3 C3            2.302371    1.710741    2.413168 C.ar     1 SUBUNIT    0.0052
      4 C4            4.715072    0.909741    3.933268 C.ar     1 SUBUNIT    0.0039
      5 C5            2.600771    2.348040    3.681468 C.ar     1 SUBUNIT    0.0039
      6 C6            3.816471    1.947141    4.432668 C.ar     1 SUBUNIT   -0.0467
      7 C7            2.899471    0.011141    0.540968 C.3      1 SUBUNIT    0.1324
      8 C8            2.301371   -3.292660    0.926268 C.ar     1 SUBUNIT   -0.0167
      9 C9            2.885571   -3.404260    2.290668 C.ar     1 SUBUNIT    0.0086
     10 C10           3.123471   -3.579760   -0.257132 C.ar     1 SUBUNIT    0.0086
     11 C11           4.308672   -3.759860    2.448068 C.ar     1 SUBUNIT    0.0006
     12 C12           4.539772   -3.945360   -0.090132 C.ar     1 SUBUNIT    0.0006
     13 C13           5.128772   -4.024660    1.256069 C.ar     1 SUBUNIT    0.0000
     14 N14          -0.809529    0.448441    0.160068 N.2      1 SUBUNIT   -0.2365
     15 C15           0.445371    0.814041    0.218668 C.2      1 SUBUNIT    0.0926
     16 N16           1.399970   -0.267359    0.445968 N.pl3    1 SUBUNIT   -0.2257
     17 C17           0.572971   -1.427359    0.530768 C.ar     1 SUBUNIT    0.0596
     18 C18          -0.750829   -0.993559    0.358868 C.ar     1 SUBUNIT    0.1136
     19 C19           1.035970    2.226840    0.079568 C.3      1 SUBUNIT    0.0982
     20 C20           0.896471   -2.783260    0.740768 C.ar     1 SUBUNIT    0.0026
     21 C21          -0.171429   -3.716160    0.774468 C.ar     1 SUBUNIT    0.0131
     22 C22          -1.525030   -3.280360    0.599768 C.ar     1 SUBUNIT    0.0360
     23 C23          -1.824230   -1.908759    0.389768 C.ar     1 SUBUNIT    0.0987
     24 C24          -1.417030    2.860540   -2.019331 C.ar     1 SUBUNIT    0.0371
     25 C25          -0.342829    3.623940   -2.646832 C.ar     1 SUBUNIT    0.0752
     26 C26          -2.769229    2.898040   -2.592032 C.ar     1 SUBUNIT   -0.0410
     27 C27          -0.619429    4.420340   -3.846532 C.ar     1 SUBUNIT    0.0333
     28 C28          -3.055029    3.702140   -3.796732 C.ar     1 SUBUNIT    0.0041
     29 C29          -1.972130    4.460140   -4.417232 C.ar     1 SUBUNIT    0.0030
     30 O30           0.953071    3.592340   -2.097932 O.3      1 SUBUNIT   -0.3456
     31 C47           1.223970    2.266540   -1.579531 C.3      1 SUBUNIT    0.1752
     32 O48          -3.081229   -1.499759    0.226868 O.3      1 SUBUNIT   -0.3586
     33 H49          -3.469529   -1.378759    1.108469 H        1 SUBUNIT    0.2183
@<TRIPOS>BOND
     1    1    2 ar
     2    1    3 ar
     3    1    7 1
     4    2    4 ar
     5    3    5 ar
     6    4    6 ar
     7    5    6 ar
     8    7   16 1
     9    8    9 ar
    10    8   10 ar
    11    8   20 1
    12    9   11 ar
    13   10   12 ar
    14   11   13 ar
    15   12   13 ar
    16   14   18 1
    17   14   15 2
    18   15   16 1
    19   15   19 1
    20   16   17 1
    21   17   18 ar
    22   17   20 ar
    23   18   23 ar
    24   19   31 1
    25   20   21 ar
    26   21   22 ar
    27   22   23 ar
    28   23   32 1
    29   24   25 ar
    30   24   26 ar
    31   25   27 ar
    32   25   30 1
    33   26   28 ar
    34   27   29 ar
    35   28   29 ar
    36   30   31 1
    37   32   33 1
@<SCITEGIC>ATOM_PROPERTY
Formal Charge
SciTegic.value.StringValue
1 0
2 0
3 0
4 0
5 0
6 0
7 0
8 0
9 0
10 0
11 0
12 0
13 0
14 0
15 0
16 0
17 0
18 0
19 0
20 0
21 0
22 0
23 0
24 0
25 0
26 0
27 0
28 0
29 0
30 0
31 0
32 0
33 0

@<SCITEGIC>ATOM_PROPERTY
pdb_tempFactor
SciTegic.value.DoubleValue
1 0.00
2 0.00
3 0.00
4 0.00
5 0.00
6 0.00
7 0.00
8 0.00
9 0.00
10 0.00
11 0.00
12 0.00
13 0.00
14 0.00
15 0.00
16 0.00
17 0.00
18 0.00
19 0.00
20 0.00
21 0.00
22 0.00
23 0.00
24 0.00
25 0.00
26 0.00
27 0.00
28 0.00
29 0.00
30 0.00
31 0.00
32 0.00
33 0.00

@<SCITEGIC>ATOM_PROPERTY
pdb_occupancy
SciTegic.value.DoubleValue
1 1.00
2 1.00
3 1.00
4 1.00
5 1.00
6 1.00
7 1.00
8 1.00
9 1.00
10 1.00
11 1.00
12 1.00
13 1.00
14 1.00
15 1.00
16 1.00
17 1.00
18 1.00
19 1.00
20 1.00
21 1.00
22 1.00
23 1.00
24 1.00
25 1.00
26 1.00
27 1.00
28 1.00
29 1.00
30 1.00
31 1.00
32 1.00
33 1.00

