#	Copyright: drugdesign.org
#	Creation time:	2024-01-11T11:02:18Z

@<TRIPOS>MOLECULE
MORPHINE
    0     0     0 0 0
SMALL
USER_CHARGES


#	Copyright: drugdesign.org
#	Creation time:	2024-01-11T11:02:18Z

@<TRIPOS>MOLECULE
CODEINE
    0     0     0 0 0
SMALL
USER_CHARGES


#	Copyright: drugdesign.org
#	Creation time:	2024-01-11T11:02:18Z

@<TRIPOS>MOLECULE
Serotonin
   25    26     0 0 0
SMALL
USER_CHARGES


@<TRIPOS>ATOM
      1 H1           -0.575102    3.573426    2.446942 H        1 SUBUNIT    0.0666
      2 C2           -1.361008    4.094594    2.779666 C.ar     1 SUBUNIT   -0.0151
      3 C3           -3.602357    5.560087    3.730061 C.ar     1 SUBUNIT   -0.0204
      4 C4           -2.656086    3.615906    2.649980 C.ar     1 SUBUNIT    0.1165
      5 C5           -1.204679    5.338569    3.396800 C.ar     1 SUBUNIT   -0.0281
      6 C6           -2.308641    6.063715    3.864064 C.ar     1 SUBUNIT    0.0722
      7 C7           -3.731447    4.327375    3.112339 C.ar     1 SUBUNIT    0.0273
      8 N8           -3.095927    2.485967    2.110663 N.ar     1 SUBUNIT    0.2865
      9 H9           -0.286449    5.718904    3.506951 H        1 SUBUNIT    0.0651
     10 O10          -2.119863    7.305136    4.468015 O.3      1 SUBUNIT   -0.3609
     11 C11          -6.281556    4.011770    3.206709 C.3      1 SUBUNIT   -0.0115
     12 H12          -4.398414    6.064932    4.064015 H        1 SUBUNIT    0.0658
     13 H13          -1.156524    7.523926    4.484061 H        1 SUBUNIT    0.2182
     14 C14          -4.430571    2.422495    2.194357 C.ar     1 SUBUNIT    0.0748
     15 H15          -2.515202    1.786199    1.702958 H        1 SUBUNIT    0.2815
     16 H16          -5.010761    1.679677    1.860194 H        1 SUBUNIT    0.1060
     17 C17          -4.862598    3.586567    2.834899 C.ar     1 SUBUNIT    0.0005
     18 H18          -6.430085    3.750746    4.160628 H        1 SUBUNIT    0.0330
     19 C19          -7.466898    3.420445    2.371790 C.3      1 SUBUNIT   -0.0035
     20 H20          -6.325526    5.007282    3.122361 H        1 SUBUNIT    0.0330
     21 H21          -8.320246    3.636736    2.846161 H        1 SUBUNIT    0.0429
     22 N22          -7.410959    1.967503    2.171347 N.3      1 SUBUNIT   -0.3301
     23 H23          -7.464114    3.859135    1.473210 H        1 SUBUNIT    0.0429
     24 H24          -7.883716    1.495850    2.944966 H        1 SUBUNIT    0.1184
     25 H25          -7.858758    1.717185    1.278042 H        1 SUBUNIT    0.1184
@<TRIPOS>BOND
     1    2    1 1
     2    2    5 ar
     3    3    6 ar
     4    3    7 ar
     5    4    7 ar
     6    4    2 ar
     7    5    6 ar
     8    8    4 ar
     9    8   14 ar
    10   10    6 1
    11   22   19 1
    12   22   24 1
    13    3   12 1
    14    5    9 1
    15    7   17 ar
    16    8   15 1
    17   10   13 1
    18   11   18 1
    19   11   17 1
    20   11   19 1
    21   11   20 1
    22   14   16 1
    23   14   17 ar
    24   19   23 1
    25   19   21 1
    26   22   25 1
@<SCITEGIC>ATOM_PROPERTY
Formal Charge
SciTegic.value.StringValue
1 0
2 0
3 0
4 0
5 0
6 0
7 0
8 0
9 0
10 0
11 0
12 0
13 0
14 0
15 0
16 0
17 0
18 0
19 0
20 0
21 0
22 0
23 0
24 0
25 0

@<SCITEGIC>ATOM_PROPERTY
pdb_tempFactor
SciTegic.value.DoubleValue
1 0.00
2 0.00
3 0.00
4 0.00
5 0.00
6 0.00
7 0.00
8 0.00
9 0.00
10 0.00
11 0.00
12 0.00
13 0.00
14 0.00
15 0.00
16 0.00
17 0.00
18 0.00
19 0.00
20 0.00
21 0.00
22 0.00
23 0.00
24 0.00
25 0.00

@<SCITEGIC>ATOM_PROPERTY
pdb_occupancy
SciTegic.value.DoubleValue
1 1.00
2 1.00
3 1.00
4 1.00
5 1.00
6 1.00
7 1.00
8 1.00
9 1.00
10 1.00
11 1.00
12 1.00
13 1.00
14 1.00
15 1.00
16 1.00
17 1.00
18 1.00
19 1.00
20 1.00
21 1.00
22 1.00
23 1.00
24 1.00
25 1.00

#	Copyright: drugdesign.org
#	Creation time:	2024-01-11T11:02:18Z

@<TRIPOS>MOLECULE
Novocaine
   40    40     0 0 0
SMALL
USER_CHARGES


@<TRIPOS>ATOM
      1 C1           -2.836715    1.706858   10.270107 C.ar     1 SUBUNIT   -0.0473
      2 C2           -2.109618    2.648639    9.551841 C.ar     1 SUBUNIT    0.0471
      3 C3           -1.738843    2.388007    8.235954 C.ar     1 SUBUNIT   -0.0473
      4 C4           -2.100790    1.182755    7.642609 C.ar     1 SUBUNIT   -0.0436
      5 C5           -2.829574    0.240399    8.362721 C.ar     1 SUBUNIT    0.0118
      6 C6           -3.196570    0.501693    9.677629 C.ar     1 SUBUNIT   -0.0436
      7 C7           -1.752280    3.909400   10.195127 C.2      1 SUBUNIT    0.2927
      8 O8           -2.126741    4.119542   11.353825 O.2      1 SUBUNIT   -0.2607
      9 O9           -1.001895    4.881149    9.533463 O.3      1 SUBUNIT   -0.3121
     10 C10          -0.882588    5.997184   10.432152 C.3      1 SUBUNIT    0.0579
     11 C11           0.080966    7.086326    9.916275 C.3      1 SUBUNIT   -0.0161
     12 C12           0.019544    8.267225   10.922386 C.3      1 SUBUNIT    0.0003
     13 N13           1.012224    9.326734   10.619201 N.3      1 SUBUNIT   -0.3038
     14 C14           0.853573   10.428760   11.597531 C.3      1 SUBUNIT   -0.0047
     15 C15           1.061782    9.907713   13.036291 C.3      1 SUBUNIT   -0.0524
     16 C16           0.811264    9.850821    9.254155 C.3      1 SUBUNIT   -0.0047
     17 C17           1.871942   10.931855    8.946403 C.3      1 SUBUNIT   -0.0524
     18 N18          -3.203104   -0.998268    7.752268 N.pl3    1 SUBUNIT   -0.3026
     19 H19          -3.101637    1.896436   11.215450 H        1 SUBUNIT    0.0632
     20 H20          -1.214422    3.064470    7.718920 H        1 SUBUNIT    0.0632
     21 H21          -1.836737    0.993067    6.696911 H        1 SUBUNIT    0.0640
     22 H22          -3.718271   -0.175582   10.196391 H        1 SUBUNIT    0.0640
     23 H23          -1.787411    6.404799   10.555655 H        1 SUBUNIT    0.0574
     24 H24          -0.544195    5.663059   11.311777 H        1 SUBUNIT    0.0574
     25 H25           1.012200    6.725118    9.868548 H        1 SUBUNIT    0.0303
     26 H26          -0.204463    7.394314    9.008758 H        1 SUBUNIT    0.0303
     27 H27          -0.896196    8.667785   10.890503 H        1 SUBUNIT    0.0431
     28 H28           0.197873    7.914834   11.841054 H        1 SUBUNIT    0.0431
     29 H29           1.529169   11.140235   11.404222 H        1 SUBUNIT    0.0428
     30 H30          -0.066720   10.811320   11.516000 H        1 SUBUNIT    0.0428
     31 H31           0.951649   10.661852   13.683615 H        1 SUBUNIT    0.0243
     32 H32           1.981987    9.526160   13.123280 H        1 SUBUNIT    0.0243
     33 H33           0.386552    9.197230   13.235001 H        1 SUBUNIT    0.0243
     34 H34           0.898689    9.103373    8.595585 H        1 SUBUNIT    0.0428
     35 H35          -0.101823   10.252470    9.184004 H        1 SUBUNIT    0.0428
     36 H36           1.731460   11.283422    8.020893 H        1 SUBUNIT    0.0243
     37 H37           2.785976   10.531937    9.015341 H        1 SUBUNIT    0.0243
     38 H38           1.785797   11.680701    9.603577 H        1 SUBUNIT    0.0243
     39 H39          -3.718031   -1.551352    8.407194 H        1 SUBUNIT    0.1243
     40 H40          -2.380801   -1.493738    7.472087 H        1 SUBUNIT    0.1243
@<TRIPOS>BOND
     1    1    2 ar
     2    2    3 ar
     3    3    4 ar
     4    4    5 ar
     5    5    6 ar
     6    6    1 ar
     7    2    7 1
     8    7    8 2
     9    7    9 1
    10    9   10 1
    11   10   11 1
    12   11   12 1
    13   12   13 1
    14   13   14 1
    15   14   15 1
    16   13   16 1
    17   16   17 1
    18    5   18 1
    19    1   19 1
    20    3   20 1
    21    4   21 1
    22    6   22 1
    23   10   23 1
    24   10   24 1
    25   11   25 1
    26   11   26 1
    27   12   27 1
    28   12   28 1
    29   14   29 1
    30   14   30 1
    31   15   31 1
    32   15   32 1
    33   15   33 1
    34   16   34 1
    35   16   35 1
    36   17   36 1
    37   17   37 1
    38   17   38 1
    39   18   39 1
    40   18   40 1
@<SCITEGIC>ATOM_PROPERTY
Formal Charge
SciTegic.value.StringValue
1 0
2 0
3 0
4 0
5 0
6 0
7 0
8 0
9 0
10 0
11 0
12 0
13 0
14 0
15 0
16 0
17 0
18 0
19 0
20 0
21 0
22 0
23 0
24 0
25 0
26 0
27 0
28 0
29 0
30 0
31 0
32 0
33 0
34 0
35 0
36 0
37 0
38 0
39 0
40 0

@<SCITEGIC>ATOM_PROPERTY
pdb_tempFactor
SciTegic.value.DoubleValue
1 0.00
2 0.00
3 0.00
4 0.00
5 0.00
6 0.00
7 0.00
8 0.00
9 0.00
10 0.00
11 0.00
12 0.00
13 0.00
14 0.00
15 0.00
16 0.00
17 0.00
18 0.00
19 0.00
20 0.00
21 0.00
22 0.00
23 0.00
24 0.00
25 0.00
26 0.00
27 0.00
28 0.00
29 0.00
30 0.00
31 0.00
32 0.00
33 0.00
34 0.00
35 0.00
36 0.00
37 0.00
38 0.00
39 0.00
40 0.00

@<SCITEGIC>ATOM_PROPERTY
pdb_occupancy
SciTegic.value.DoubleValue
1 1.00
2 1.00
3 1.00
4 1.00
5 1.00
6 1.00
7 1.00
8 1.00
9 1.00
10 1.00
11 1.00
12 1.00
13 1.00
14 1.00
15 1.00
16 1.00
17 1.00
18 1.00
19 1.00
20 1.00
21 1.00
22 1.00
23 1.00
24 1.00
25 1.00
26 1.00
27 1.00
28 1.00
29 1.00
30 1.00
31 1.00
32 1.00
33 1.00
34 1.00
35 1.00
36 1.00
37 1.00
38 1.00
39 1.00
40 1.00

