#	Copyright: drugdesign.org
#	Creation time:	2024-01-04T21:12:09Z

@<TRIPOS>MOLECULE
3.mol
   35    37     0 0 0
SMALL
USER_CHARGES


@<TRIPOS>ATOM
      1 P1            4.426400    3.026400    7.240300 P.3      1 SUBUNIT    0.4781
      2 O2            5.538200    2.921300    8.249500 O.2      1 SUBUNIT   -0.2278
      3 O3            4.146100    1.692400    6.517100 O.3      1 SUBUNIT   -0.0789
      4 O4            4.770900    4.004900    6.223600 O.3      1 SUBUNIT   -0.0789
      5 P5            2.263600    4.966400    8.131500 P.3      1 SUBUNIT    0.4896
      6 O6            2.110000    5.467400    6.741100 O.2      1 SUBUNIT   -0.2271
      7 O7            2.843300    5.905000    9.182200 O.3      1 SUBUNIT   -0.0784
      8 O8            3.077800    3.583700    8.032200 O.3      1 SUBUNIT   -0.1845
      9 P9           -0.280800    3.579700    7.696600 P.3      1 SUBUNIT    0.4808
     10 O10          -0.901400    4.460600    6.680600 O.2      1 SUBUNIT   -0.2276
     11 O11           0.397300    2.366600    7.108700 O.3      1 SUBUNIT   -0.0787
     12 O12           0.814900    4.446900    8.560700 O.3      1 SUBUNIT   -0.1844
     13 O13          -1.319500    3.105700    8.859800 O.3      1 SUBUNIT   -0.2838
     14 C14          -0.767600    2.050300    9.722000 C.3      1 SUBUNIT    0.2079
     15 C15          -1.733800    0.851700    9.900800 C.3      1 SUBUNIT    0.1780
     16 O16          -3.112300    1.368100   10.068100 O.3      1 SUBUNIT   -0.3510
     17 C17          -1.910800   -0.104800    8.696300 C.3      1 SUBUNIT    0.1781
     18 O18          -0.791700   -0.989400    8.498600 O.3      1 SUBUNIT   -0.3874
     19 C19          -3.272200   -0.798800    9.077700 C.3      1 SUBUNIT    0.1901
     20 O20          -3.158200   -1.850700   10.048500 O.3      1 SUBUNIT   -0.3861
     21 C21          -4.078600    0.345200    9.686100 C.3      1 SUBUNIT    0.2315
     22 N22          -5.087200    0.951200    8.742500 N.pl3    1 SUBUNIT   -0.1871
     23 C23          -4.710600    1.961000    7.878200 C.2      1 SUBUNIT    0.1779
     24 N24          -5.713800    2.424500    7.116500 N.2      1 SUBUNIT   -0.2377
     25 C25          -6.844700    1.709500    7.540500 C.2      1 SUBUNIT    0.1383
     26 C26          -8.249900    1.745800    7.148500 C.2      1 SUBUNIT    0.1337
     27 N27          -8.761200    2.553300    6.164800 N.pl3    1 SUBUNIT   -0.2849
     28 N28          -9.090600    0.833600    7.739400 N.2      1 SUBUNIT   -0.2228
     29 C29          -8.598200    0.012900    8.735400 C.2      1 SUBUNIT    0.2252
     30 N30          -7.319300   -0.083800    9.200800 N.2      1 SUBUNIT   -0.2219
     31 C31          -6.451400    0.709600    8.464200 C.2      1 SUBUNIT    0.1466
     32 H32          -1.004100   -1.534500    7.732600 H        1 SUBUNIT    0.2107
     33 H33          -2.574900   -2.508400    9.663800 H        1 SUBUNIT    0.2108
     34 H34          -8.108500    3.176700    5.668900 H        1 SUBUNIT    0.1259
     35 H35          -9.770000    2.535600    5.929800 H        1 SUBUNIT    0.1259
@<TRIPOS>BOND
     1    1    2 2
     2    1    3 1
     3    1    4 1
     4    1    8 1
     5    5    6 2
     6    5    7 1
     7    5    8 1
     8    5   12 1
     9    9   10 2
    10    9   11 1
    11    9   12 1
    12    9   13 1
    13   13   14 1
    14   14   15 1
    15   15   16 1
    16   15   17 1
    17   16   21 1
    18   17   18 1
    19   17   19 1
    20   18   32 1
    21   19   20 1
    22   19   21 1
    23   20   33 1
    24   21   22 1
    25   22   23 1
    26   22   31 1
    27   23   24 2
    28   24   25 1
    29   25   26 1
    30   25   31 2
    31   26   27 1
    32   26   28 2
    33   27   34 1
    34   27   35 1
    35   28   29 1
    36   29   30 2
    37   30   31 1
@<SCITEGIC>ATOM_PROPERTY
Formal Charge
SciTegic.value.StringValue
1 0
2 0
3 0
4 0
5 0
6 0
7 0
8 0
9 0
10 0
11 0
12 0
13 0
14 0
15 0
16 0
17 0
18 0
19 0
20 0
21 0
22 0
23 0
24 0
25 0
26 0
27 0
28 0
29 0
30 0
31 0
32 0
33 0
34 0
35 0

@<SCITEGIC>ATOM_PROPERTY
pdb_tempFactor
SciTegic.value.DoubleValue
1 0.00
2 0.00
3 0.00
4 0.00
5 0.00
6 0.00
7 0.00
8 0.00
9 0.00
10 0.00
11 0.00
12 0.00
13 0.00
14 0.00
15 0.00
16 0.00
17 0.00
18 0.00
19 0.00
20 0.00
21 0.00
22 0.00
23 0.00
24 0.00
25 0.00
26 0.00
27 0.00
28 0.00
29 0.00
30 0.00
31 0.00
32 0.00
33 0.00
34 0.00
35 0.00

@<SCITEGIC>ATOM_PROPERTY
pdb_occupancy
SciTegic.value.DoubleValue
1 1.00
2 1.00
3 1.00
4 1.00
5 1.00
6 1.00
7 1.00
8 1.00
9 1.00
10 1.00
11 1.00
12 1.00
13 1.00
14 1.00
15 1.00
16 1.00
17 1.00
18 1.00
19 1.00
20 1.00
21 1.00
22 1.00
23 1.00
24 1.00
25 1.00
26 1.00
27 1.00
28 1.00
29 1.00
30 1.00
31 1.00
32 1.00
33 1.00
34 1.00
35 1.00

#	Copyright: drugdesign.org
#	Creation time:	2024-01-04T21:12:09Z

@<TRIPOS>MOLECULE
2.mol
   20    22     0 0 0
SMALL
USER_CHARGES


@<TRIPOS>ATOM
      1 H1           -9.652000    2.541400    5.786600 H        1 SUBUNIT    0.1355
      2 C2           -8.145300   -0.247800    8.453500 C.2      1 SUBUNIT    0.2251
      3 N3           -6.847200    0.048200    8.741400 N.2      1 SUBUNIT   -0.2239
      4 C4           -6.268700    1.116300    8.162800 C.2      1 SUBUNIT    0.1223
      5 C5           -7.024300    1.905700    7.286900 C.2      1 SUBUNIT    0.0532
      6 C6           -8.329400    1.548000    7.036700 C.2      1 SUBUNIT    0.1221
      7 N7           -8.813800    2.519600    6.130700 N.pl3    1 SUBUNIT   -0.2461
      8 C8           -7.747700    3.475900    5.843400 C.2      1 SUBUNIT   -0.0022
      9 C9           -6.636400    3.125300    6.539200 C.2      1 SUBUNIT   -0.0235
     10 C10          -5.291600    3.843000    6.534000 C.3      1 SUBUNIT    0.0464
     11 Mimic_Molecule   -8.076300    4.600100    4.885800 C.3      1 SUBUNIT    0.0580
     12 N12          -8.902500    0.482700    7.607800 N.2      1 SUBUNIT   -0.2239
     13 N13          -4.881900    1.441500    8.487300 N.pl3    1 SUBUNIT   -0.2424
     14 H14          -4.668800    2.287200    8.672200 H        1 SUBUNIT    0.1358
     15 C15          -3.813600    0.451900    8.559400 C.2      1 SUBUNIT    0.0201
     16 C16          -2.502500    0.865200    8.265100 C.2      1 SUBUNIT    0.0201
     17 C17          -1.442200   -0.043400    8.313200 C.2      1 SUBUNIT    0.0016
     18 C18          -1.683500   -1.377300    8.654000 C.2      1 SUBUNIT    0.0001
     19 C19          -2.991800   -1.808900    8.946100 C.2      1 SUBUNIT    0.0016
     20 C20          -4.055000   -0.894200    8.890900 C.2      1 SUBUNIT    0.0201
@<TRIPOS>BOND
     1    1    7 1
     2    2   12 2
     3    2    3 1
     4    3    4 2
     5    4    5 1
     6    4   13 1
     7    5    6 2
     8    5    9 1
     9    6   12 1
    10    6    7 1
    11    7    8 1
    12    8    9 2
    13    8   11 1
    14    9   10 1
    15   13   14 1
    16   13   15 1
    17   15   16 1
    18   15   20 2
    19   16   17 2
    20   17   18 1
    21   18   19 2
    22   19   20 1
@<SCITEGIC>ATOM_PROPERTY
Formal Charge
SciTegic.value.StringValue
1 0
2 0
3 0
4 0
5 0
6 0
7 0
8 0
9 0
10 0
11 0
12 0
13 0
14 0
15 0
16 0
17 0
18 0
19 0
20 0

@<SCITEGIC>ATOM_PROPERTY
pdb_tempFactor
SciTegic.value.DoubleValue
1 0.00
2 0.00
3 0.00
4 0.00
5 0.00
6 0.00
7 0.00
8 0.00
9 0.00
10 0.00
11 0.00
12 0.00
13 0.00
14 0.00
15 0.00
16 0.00
17 0.00
18 0.00
19 0.00
20 0.00

@<SCITEGIC>ATOM_PROPERTY
pdb_occupancy
SciTegic.value.DoubleValue
1 1.00
2 1.00
3 1.00
4 1.00
5 1.00
6 1.00
7 1.00
8 1.00
9 1.00
10 1.00
11 1.00
12 1.00
13 1.00
14 1.00
15 1.00
16 1.00
17 1.00
18 1.00
19 1.00
20 1.00

