#	Copyright: drugdesign.org
#	Creation time:	2024-01-04T21:15:46Z

@<TRIPOS>MOLECULE
dopamine
   15    15     0 0 0
SMALL
USER_CHARGES


@<TRIPOS>ATOM
      1 C1          -20.470800   -7.060100    0.367500 C.2      1 SUBUNIT   -0.0440
      2 C2          -21.738600   -7.631100    0.232200 C.2      1 SUBUNIT    0.0064
      3 C3          -21.896000   -9.012800    0.345500 C.2      1 SUBUNIT    0.0360
      4 C4          -20.806900   -9.856900    0.591700 C.2      1 SUBUNIT    0.1013
      5 C5          -19.527800   -9.291900    0.724900 C.2      1 SUBUNIT    0.1015
      6 C6          -19.382500   -7.903500    0.609200 C.2      1 SUBUNIT    0.0393
      7 C7          -20.279800   -5.563800    0.239700 C.3      1 SUBUNIT    0.0504
      8 C8          -19.992599   -5.171300   -1.220500 C.3      1 SUBUNIT    0.0821
      9 N9          -19.815399   -3.740500   -1.353400 N.3      1 SUBUNIT   -0.3301
     10 H10         -19.611300   -3.478300   -2.321500 H        1 SUBUNIT    0.1184
     11 H11         -19.016399   -3.407600   -0.807900 H        1 SUBUNIT    0.1184
     12 O12         -20.981800  -11.207400    0.698800 O.3      1 SUBUNIT   -0.3582
     13 H13         -20.122601  -11.635600    0.869600 H        1 SUBUNIT    0.2183
     14 O14         -18.455299  -10.103500    0.962200 O.3      1 SUBUNIT   -0.3582
     15 _____H15    -17.631800   -9.587900    1.037600 H        1 SUBUNIT    0.2183
@<TRIPOS>BOND
     1    1    2 2
     2    1    6 1
     3    1    7 1
     4    2    3 1
     5    3    4 2
     6    4    5 1
     7    4   12 1
     8    5    6 2
     9    5   14 1
    10    7    8 1
    11    8    9 1
    12    9   10 1
    13    9   11 1
    14   12   13 1
    15   14   15 1
@<SCITEGIC>ATOM_PROPERTY
Formal Charge
SciTegic.value.StringValue
1 0
2 0
3 0
4 0
5 0
6 0
7 0
8 0
9 0
10 0
11 0
12 0
13 0
14 0
15 0

@<SCITEGIC>ATOM_PROPERTY
pdb_tempFactor
SciTegic.value.DoubleValue
1 0.00
2 0.00
3 0.00
4 0.00
5 0.00
6 0.00
7 0.00
8 0.00
9 0.00
10 0.00
11 0.00
12 0.00
13 0.00
14 0.00
15 0.00

@<SCITEGIC>ATOM_PROPERTY
pdb_occupancy
SciTegic.value.DoubleValue
1 1.00
2 1.00
3 1.00
4 1.00
5 1.00
6 1.00
7 1.00
8 1.00
9 1.00
10 1.00
11 1.00
12 1.00
13 1.00
14 1.00
15 1.00

#	Copyright: drugdesign.org
#	Creation time:	2024-01-04T21:15:46Z

@<TRIPOS>MOLECULE
ligand4
   23    26     0 0 0
SMALL
USER_CHARGES


@<TRIPOS>ATOM
      1 H1          -20.480801   -3.398200   -2.186600 H        1 SUBUNIT    0.1228
      2 C2          -19.393600   -9.355300    0.768200 C.2      1 SUBUNIT    0.1016
      3 C3          -20.722799   -9.748400    0.553500 C.2      1 SUBUNIT    0.1015
      4 C4          -21.666599   -8.765500    0.239300 C.2      1 SUBUNIT    0.0395
      5 C5          -21.336901   -7.408900    0.149000 C.2      1 SUBUNIT   -0.0413
      6 C6          -20.016600   -7.006100    0.399400 C.2      1 SUBUNIT   -0.0329
      7 C7          -19.702801   -5.521300    0.311000 C.3      1 SUBUNIT    0.0669
      8 C8          -20.410999   -5.040100   -0.973600 C.3      1 SUBUNIT    0.0658
      9 C9          -21.924601   -5.032700   -0.688500 C.3      1 SUBUNIT    0.0245
     10 C10         -22.420000   -6.432500   -0.271400 C.3      1 SUBUNIT    0.0373
     11 C11         -18.259100   -5.072300    0.421200 C.2      1 SUBUNIT   -0.0344
     12 C12         -17.692801   -4.251200   -0.563500 C.2      1 SUBUNIT   -0.0302
     13 C13         -18.531099   -3.781500   -1.728600 C.3      1 SUBUNIT    0.1169
     14 N14         -19.940901   -3.731100   -1.382500 N.3      1 SUBUNIT   -0.3089
     15 C15         -17.494499   -5.386000    1.553500 C.2      1 SUBUNIT    0.0046
     16 C16         -16.168900   -4.962400    1.671300 C.2      1 SUBUNIT    0.0003
     17 C17         -15.594900   -4.191000    0.659600 C.2      1 SUBUNIT    0.0004
     18 C18         -16.363100   -3.828700   -0.448700 C.2      1 SUBUNIT    0.0052
     19 C19         -19.068399   -7.995900    0.680200 C.2      1 SUBUNIT    0.0402
     20 O20         -18.449800  -10.300700    1.053700 O.3      1 SUBUNIT   -0.3582
     21 O21         -21.080099  -11.064700    0.631300 O.3      1 SUBUNIT   -0.3582
     22 H22         -20.297400  -11.602500    0.853000 H        1 SUBUNIT    0.2183
     23 H23         -17.572500   -9.897200    1.187000 H        1 SUBUNIT    0.2183
@<TRIPOS>BOND
     1    1   14 1
     2    2   19 2
     3    2    3 1
     4    2   20 1
     5    3    4 2
     6    3   21 1
     7    4    5 1
     8    5    6 2
     9    5   10 1
    10    6   19 1
    11    6    7 1
    12    7    8 1
    13    7   11 1
    14    8    9 1
    15    8   14 1
    16    9   10 1
    17   11   12 1
    18   11   15 2
    19   12   13 1
    20   12   18 2
    21   13   14 1
    22   15   16 1
    23   16   17 2
    24   17   18 1
    25   20   23 1
    26   21   22 1
@<SCITEGIC>ATOM_PROPERTY
Formal Charge
SciTegic.value.StringValue
1 0
2 0
3 0
4 0
5 0
6 0
7 0
8 0
9 0
10 0
11 0
12 0
13 0
14 0
15 0
16 0
17 0
18 0
19 0
20 0
21 0
22 0
23 0

@<SCITEGIC>ATOM_PROPERTY
pdb_tempFactor
SciTegic.value.DoubleValue
1 0.00
2 0.00
3 0.00
4 0.00
5 0.00
6 0.00
7 0.00
8 0.00
9 0.00
10 0.00
11 0.00
12 0.00
13 0.00
14 0.00
15 0.00
16 0.00
17 0.00
18 0.00
19 0.00
20 0.00
21 0.00
22 0.00
23 0.00

@<SCITEGIC>ATOM_PROPERTY
pdb_occupancy
SciTegic.value.DoubleValue
1 1.00
2 1.00
3 1.00
4 1.00
5 1.00
6 1.00
7 1.00
8 1.00
9 1.00
10 1.00
11 1.00
12 1.00
13 1.00
14 1.00
15 1.00
16 1.00
17 1.00
18 1.00
19 1.00
20 1.00
21 1.00
22 1.00
23 1.00

