#	Copyright: drugdesign.org
#	Creation time:	2024-01-04T21:42:01Z

@<TRIPOS>MOLECULE
l5.mol
   23    25     0 0 0
SMALL
USER_CHARGES


@<TRIPOS>ATOM
      1 H1           -4.213400  -10.849200   16.448601 H        1 SUBUNIT    0.2182
      2 C2           -2.578400  -10.249900   18.166700 C.2      1 SUBUNIT    0.0668
      3 C3           -1.784700   -9.888000   19.267099 C.2      1 SUBUNIT    0.0877
      4 C4           -2.389000   -9.618500   20.510900 C.2      1 SUBUNIT    0.0836
      5 C5           -3.797500   -9.716500   20.635500 C.2      1 SUBUNIT    0.0976
      6 C6           -4.578300  -10.076600   19.527201 C.2      1 SUBUNIT    0.0677
      7 O7           -4.766000  -10.700600   17.210699 O.3      1 SUBUNIT   -0.3607
      8 C8           -3.975200  -10.344000   18.295799 C.2      1 SUBUNIT    0.0765
      9 O9           -0.401300   -9.796700   19.112600 O.3      1 SUBUNIT   -0.3599
     10 H10          -0.149900  -10.060600   18.233400 H        1 SUBUNIT    0.2183
     11 C11          -1.556800   -9.233600   21.697701 C.2      1 SUBUNIT    0.2005
     12 C12          -2.347800   -8.765400   22.863501 C.2      1 SUBUNIT    0.0533
     13 C13          -3.684700   -8.893600   22.882099 C.2      1 SUBUNIT    0.1487
     14 O14          -0.325200   -9.303300   21.726000 O.2      1 SUBUNIT   -0.2883
     15 O15          -4.461100   -9.465700   21.844900 O.3      1 SUBUNIT   -0.3164
     16 C16          -1.555700   -8.164300   23.982300 C.2      1 SUBUNIT   -0.0122
     17 C17          -0.300307   -7.564211   23.742758 C.2      1 SUBUNIT    0.0114
     18 C18           0.436381   -7.002756   24.797106 C.2      1 SUBUNIT    0.0336
     19 C19          -0.080342   -7.033713   26.097755 C.2      1 SUBUNIT    0.0713
     20 C20          -1.334289   -7.626639   26.339495 C.2      1 SUBUNIT    0.0336
     21 C21          -2.069748   -8.190209   25.285738 C.2      1 SUBUNIT    0.0114
     22 O22           0.642101   -6.479738   27.147490 O.3      1 SUBUNIT   -0.3609
     23 H23           1.475001   -6.131890   26.826639 H        1 SUBUNIT    0.2182
@<TRIPOS>BOND
     1    1    7 1
     2    2    8 2
     3    2    3 1
     4    3    4 2
     5    3    9 1
     6    4    5 1
     7    4   11 1
     8    5    6 2
     9    5   15 1
    10    6    8 1
    11    7    8 1
    12    9   10 1
    13   11   12 1
    14   11   14 2
    15   12   13 2
    16   12   16 1
    17   13   15 1
    18   16   17 1
    19   16   21 2
    20   17   18 2
    21   18   19 1
    22   19   20 2
    23   19   22 1
    24   20   21 1
    25   22   23 1
@<SCITEGIC>ATOM_PROPERTY
Formal Charge
SciTegic.value.StringValue
1 0
2 0
3 0
4 0
5 0
6 0
7 0
8 0
9 0
10 0
11 0
12 0
13 0
14 0
15 0
16 0
17 0
18 0
19 0
20 0
21 0
22 0
23 0

@<SCITEGIC>ATOM_PROPERTY
pdb_tempFactor
SciTegic.value.DoubleValue
1 0.00
2 0.00
3 0.00
4 0.00
5 0.00
6 0.00
7 0.00
8 0.00
9 0.00
10 0.00
11 0.00
12 0.00
13 0.00
14 0.00
15 0.00
16 0.00
17 0.00
18 0.00
19 0.00
20 0.00
21 0.00
22 0.00
23 0.00

@<SCITEGIC>ATOM_PROPERTY
pdb_occupancy
SciTegic.value.DoubleValue
1 1.00
2 1.00
3 1.00
4 1.00
5 1.00
6 1.00
7 1.00
8 1.00
9 1.00
10 1.00
11 1.00
12 1.00
13 1.00
14 1.00
15 1.00
16 1.00
17 1.00
18 1.00
19 1.00
20 1.00
21 1.00
22 1.00
23 1.00

#	Copyright: drugdesign.org
#	Creation time:	2024-01-04T21:42:01Z

@<TRIPOS>MOLECULE
l1.mol
   22    25     0 0 0
SMALL
USER_CHARGES


@<TRIPOS>ATOM
      1 C1           -2.254007   -8.008957   24.930292 C.2      1 SUBUNIT    0.0068
      2 C2           -1.585706   -7.462556   26.021193 C.2      1 SUBUNIT    0.0332
      3 C3           -0.248406   -7.184456   25.900393 C.2      1 SUBUNIT    0.0716
      4 O4            0.439194   -6.626556   26.969393 O.3      1 SUBUNIT   -0.3609
      5 C5            0.509794   -7.424356   24.741491 C.2      1 SUBUNIT    0.0367
      6 C6           -0.189906   -7.978358   23.641191 C.2      1 SUBUNIT   -0.0419
      7 C7            0.664094   -8.544955   22.540691 C.3      1 SUBUNIT    0.0360
      8 C8           -0.123506   -9.383455   21.549192 C.3      1 SUBUNIT    0.0091
      9 C9           -1.485606   -8.756555   21.297092 C.3      1 SUBUNIT    0.0005
     10 C10          -2.299007   -8.866055   22.594791 C.3      1 SUBUNIT    0.0228
     11 C11          -1.558206   -8.263955   23.739092 C.2      1 SUBUNIT   -0.0412
     12 C12          -3.732507   -8.386155   22.461391 C.3      1 SUBUNIT    0.0091
     13 C13          -4.513606   -9.183655   21.378092 C.3      1 SUBUNIT    0.0101
     14 C14          -3.696306   -9.050555   20.084093 C.3      1 SUBUNIT   -0.0034
     15 C15          -2.244107   -9.533455   20.271593 C.3      1 SUBUNIT    0.0012
     16 C16          -1.772606   -9.475855   18.831993 C.3      1 SUBUNIT    0.0071
     17 C17          -2.879206  -10.404955   18.194693 C.3      1 SUBUNIT    0.0325
     18 C18          -4.127805  -10.011055   18.985493 C.3      1 SUBUNIT    0.1203
     19 O19          -5.233205   -9.659655   18.160091 O.3      1 SUBUNIT   -0.3925
     20 C20          -3.828007   -7.618756   19.615892 C.3      1 SUBUNIT    0.0142
     21 H21           1.324187   -6.402896   26.630079 H        1 SUBUNIT    0.2182
     22 H22          -5.487060  -10.440359   17.694870 H        1 SUBUNIT    0.2104
@<TRIPOS>BOND
     1    1    2 2
     2    1   11 1
     3    2    3 1
     4    3    4 1
     5    3    5 2
     6    4   21 1
     7    5    6 1
     8    6    7 1
     9    6   11 2
    10    7    8 1
    11    8    9 1
    12    9   10 1
    13    9   15 1
    14   10   11 1
    15   10   12 1
    16   12   13 1
    17   13   14 1
    18   14   15 1
    19   14   18 1
    20   14   20 1
    21   15   16 1
    22   16   17 1
    23   17   18 1
    24   18   19 1
    25   19   22 1
@<SCITEGIC>ATOM_PROPERTY
Formal Charge
SciTegic.value.StringValue
1 0
2 0
3 0
4 0
5 0
6 0
7 0
8 0
9 0
10 0
11 0
12 0
13 0
14 0
15 0
16 0
17 0
18 0
19 0
20 0
21 0
22 0

@<SCITEGIC>ATOM_PROPERTY
pdb_tempFactor
SciTegic.value.DoubleValue
1 0.00
2 0.00
3 0.00
4 0.00
5 0.00
6 0.00
7 0.00
8 0.00
9 0.00
10 0.00
11 0.00
12 0.00
13 0.00
14 0.00
15 0.00
16 0.00
17 0.00
18 0.00
19 0.00
20 0.00
21 0.00
22 0.00

@<SCITEGIC>ATOM_PROPERTY
pdb_occupancy
SciTegic.value.DoubleValue
1 1.00
2 1.00
3 1.00
4 1.00
5 1.00
6 1.00
7 1.00
8 1.00
9 1.00
10 1.00
11 1.00
12 1.00
13 1.00
14 1.00
15 1.00
16 1.00
17 1.00
18 1.00
19 1.00
20 1.00
21 1.00
22 1.00

