#	Copyright: drugdesign.org
#	Creation time:	2024-01-04T21:26:20Z

@<TRIPOS>MOLECULE
triazole
   21    22     0 0 0
SMALL
USER_CHARGES


@<TRIPOS>ATOM
      1 C1           -0.371200    2.688600    1.092000 C.2      1 SUBUNIT    0.0390
      2 C2           -1.362800    3.673300    0.929300 C.2      1 SUBUNIT    0.0398
      3 N3           -2.692200    3.400800    1.299800 N.2      1 SUBUNIT   -0.2444
      4 C4           -3.030200    2.143500    1.833100 C.2      1 SUBUNIT    0.1026
      5 C5           -2.038700    1.158800    1.995800 C.2      1 SUBUNIT   -0.0246
      6 C6           -0.709200    1.431300    1.625200 C.2      1 SUBUNIT   -0.0464
      7 H7           -1.097100    4.661000    0.510300 H        1 SUBUNIT    0.0848
      8 H8           -2.304300    0.171200    2.414700 H        1 SUBUNIT    0.0656
      9 H9            0.069800    0.657700    1.753100 H        1 SUBUNIT    0.0632
     10 N10           1.253800    4.152000    0.221300 N.2      1 SUBUNIT   -0.1742
     11 C11           0.863500    2.977500    0.734600 C.2      1 SUBUNIT    0.1776
     12 N12           2.048700    2.110700    0.814400 N.2      1 SUBUNIT   -0.2024
     13 C13           3.092800    2.807000    0.345100 C.2      1 SUBUNIT    0.1714
     14 N14           2.724200    4.198100   -0.094300 N.pl3    1 SUBUNIT   -0.1535
     15 N15           4.368900    2.348000    0.254400 N.pl3    1 SUBUNIT   -0.2756
     16 H16           4.414600    1.294000    0.634300 H        1 SUBUNIT    0.1268
     17 N17          -4.314700    1.880300    2.191100 N.pl3    1 SUBUNIT   -0.2869
     18 H18           3.292900    4.939900   -0.483900 H        1 SUBUNIT    0.1588
     19 H19           5.111100    2.931500   -0.111800 H        1 SUBUNIT    0.1268
     20 H20          -5.013100    2.602700    2.065800 H        1 SUBUNIT    0.1258
     21 H21          -4.568500    0.978600    2.575800 H        1 SUBUNIT    0.1258
@<TRIPOS>BOND
     1    1    2 2
     2    1    6 1
     3    1   11 1
     4    2    3 1
     5    2    7 1
     6    3    4 2
     7    4    5 1
     8    4   17 1
     9    5    6 2
    10    5    8 1
    11    6    9 1
    12   10   11 2
    13   10   14 1
    14   11   12 1
    15   12   13 2
    16   13   14 1
    17   13   15 1
    18   14   18 1
    19   15   16 1
    20   15   19 1
    21   17   20 1
    22   17   21 1
@<SCITEGIC>ATOM_PROPERTY
Formal Charge
SciTegic.value.StringValue
1 0
2 0
3 0
4 0
5 0
6 0
7 0
8 0
9 0
10 0
11 0
12 0
13 0
14 0
15 0
16 0
17 0
18 0
19 0
20 0
21 0

@<SCITEGIC>ATOM_PROPERTY
pdb_tempFactor
SciTegic.value.DoubleValue
1 0.00
2 0.00
3 0.00
4 0.00
5 0.00
6 0.00
7 0.00
8 0.00
9 0.00
10 0.00
11 0.00
12 0.00
13 0.00
14 0.00
15 0.00
16 0.00
17 0.00
18 0.00
19 0.00
20 0.00
21 0.00

@<SCITEGIC>ATOM_PROPERTY
pdb_occupancy
SciTegic.value.DoubleValue
1 1.00
2 1.00
3 1.00
4 1.00
5 1.00
6 1.00
7 1.00
8 1.00
9 1.00
10 1.00
11 1.00
12 1.00
13 1.00
14 1.00
15 1.00
16 1.00
17 1.00
18 1.00
19 1.00
20 1.00
21 1.00

#	Copyright: drugdesign.org
#	Creation time:	2024-01-04T21:26:20Z

@<TRIPOS>MOLECULE
Molecule
   17    17     1 0 0
PROTEIN
USER_CHARGES


@<TRIPOS>ATOM
      1 C1*          -2.662449    2.490407    1.481000 C.2      1 1          0.1055
      2 C2*          -0.940422    1.333043    1.922829 C.2      1 1          0.0563
      3 C3*          -0.513637    2.331134    1.110472 C.2      1 1          0.0696
      4 C4*           0.823298    2.628776    0.542002 C.3      1 1         -0.0241
      5 C5*           1.053332    4.090033    0.181734 C.3      1 1         -0.0061
      6 H1*          -1.801145    3.069551   -0.151857 H        1 1          0.1238
      7 H2*          -3.602585    2.829099    1.443168 H        1 1          0.0597
      8 H3*          -0.353376    0.615743    2.298139 H        1 1          0.0444
      9 H4*           1.513555    2.361988    1.214585 H        1 1          0.0296
     10 H5*           0.937011    2.082353   -0.287751 H        1 1          0.0296
     11 H6*           0.279475    4.399578   -0.370830 H        1 1          0.0426
     12 H7*           1.089631    4.617539    1.030511 H        1 1          0.0426
     13 H8*           2.340657    5.326931   -0.754889 H        1 1          0.1184
     14 H9*           2.248983    3.839631   -1.422086 H        1 1          0.1184
     15 N1*          -1.628970    3.067350    0.833206 N.pl3    1 1         -0.3003
     16 N2*          -2.295699    1.441923    2.161245 N.2      1 1         -0.1794
     17 N3*           2.269269    4.348467   -0.561430 N.3      1 1         -0.3304
@<TRIPOS>BOND
     1    1   16 2
     2    1   15 1
     3    1    7 1
     4    2    3 2
     5    2    8 1
     6    2   16 1
     7    3    4 1
     8    3   15 1
     9    4    5 1
    10    4    9 1
    11    4   10 1
    12    5   11 1
    13    5   12 1
    14    5   17 1
    15    6   15 1
    16   13   17 1
    17   14   17 1
@<TRIPOS>SUBSTRUCTURE
1 1 1 RESIDUE 1 _ UNK
@<SCITEGIC>ATOM_PROPERTY
Formal Charge
SciTegic.value.StringValue
1 0
2 0
3 0
4 0
5 0
6 0
7 0
8 0
9 0
10 0
11 0
12 0
13 0
14 0
15 0
16 0
17 0

@<SCITEGIC>ATOM_PROPERTY
pdb_tempFactor
SciTegic.value.DoubleValue
1 0.00
2 0.00
3 0.00
4 0.00
5 0.00
6 0.00
7 0.00
8 0.00
9 0.00
10 0.00
11 0.00
12 0.00
13 0.00
14 0.00
15 0.00
16 0.00
17 0.00

@<SCITEGIC>ATOM_PROPERTY
pdb_occupancy
SciTegic.value.DoubleValue
1 1.00
2 1.00
3 1.00
4 1.00
5 1.00
6 1.00
7 1.00
8 1.00
9 1.00
10 1.00
11 1.00
12 1.00
13 1.00
14 1.00
15 1.00
16 1.00
17 1.00

