#	Created by:	Discovery Studio
#	Creation time:	2024-01-04T22:02:45Z

@<TRIPOS>MOLECULE
Ro221319
   20    22     0 0 0
SMALL
USER_CHARGES


@<TRIPOS>ATOM
      1 O1            1.921921   -0.146911   -1.690636 O.2      1 SUBUNIT   -0.2936
      2 C2           -0.876524   -0.654927   -0.946920 C.3      1 SUBUNIT    0.1817
      3 C3            0.299931   -0.498056    0.176914 C.3      1 SUBUNIT    0.0995
      4 C4            0.252413   -1.703176    1.241651 C.3      1 SUBUNIT    0.0121
      5 C5           -1.221066   -1.831931    1.815103 C.3      1 SUBUNIT    0.0435
      6 C6           -2.329917   -1.949012    0.630380 C.3      1 SUBUNIT    0.1698
      7 C7            1.750678   -0.396136   -0.452063 C.2      1 SUBUNIT    0.1708
      8 N8           -2.280006   -0.764596   -0.343992 N.4      1 SUBUNIT    0.1320
      9 C9            2.914638   -0.642449    0.565272 C.2      1 SUBUNIT    0.0365
     10 C10           2.748690   -1.158571    1.837664 C.2      1 SUBUNIT    0.0071
     11 C11           1.376923   -1.560746    2.432271 C.3      1 SUBUNIT    0.0529
     12 C12           4.432433   -0.391190    0.406243 C.2      1 SUBUNIT   -0.0224
     13 C13           5.103753   -0.771757    1.592407 C.2      1 SUBUNIT   -0.0036
     14 N14           4.078025   -1.249225    2.508534 N.pl3    1 SUBUNIT   -0.2653
     15 H15           4.241552   -1.564649    3.384677 H        1 SUBUNIT    0.1336
     16 C16           6.610363   -0.779528    2.088505 C.3      1 SUBUNIT    0.0579
     17 C17           5.026089    0.198107   -0.914413 C.3      1 SUBUNIT    0.0340
     18 C18           4.405432   -0.475427   -2.252869 C.3      1 SUBUNIT    0.0089
     19 C19          -3.375202   -0.859671   -1.454686 C.3      1 SUBUNIT    0.2147
     20 H20          -2.467987    0.124195    0.221706 H        1 SUBUNIT    0.2297
@<TRIPOS>BOND
     1    1    7 2
     2    2    8 1
     3    2    3 1
     4    3    4 1
     5    3    7 1
     6    4    5 1
     7    4   11 1
     8    5    6 1
     9    6    8 1
    10    7    9 1
    11    8   19 1
    12    8   20 1
    13    9   10 2
    14    9   12 1
    15   10   11 1
    16   10   14 1
    17   12   13 2
    18   12   17 1
    19   13   14 1
    20   13   16 1
    21   14   15 1
    22   17   18 1
@<SCITEGIC>ATOM_PROPERTY
Formal Charge
SciTegic.value.StringValue
1 0
2 0
3 0
4 0
5 0
6 0
7 0
8 0
9 0
10 0
11 0
12 0
13 0
14 0
15 0
16 0
17 0
18 0
19 0
20 0

@<SCITEGIC>ATOM_PROPERTY
pdb_tempFactor
SciTegic.value.DoubleValue
1 0.00
2 0.00
3 0.00
4 0.00
5 0.00
6 0.00
7 0.00
8 0.00
9 0.00
10 0.00
11 0.00
12 0.00
13 0.00
14 0.00
15 0.00
16 0.00
17 0.00
18 0.00
19 0.00
20 0.00

@<SCITEGIC>ATOM_PROPERTY
pdb_occupancy
SciTegic.value.DoubleValue
1 1.00
2 1.00
3 1.00
4 1.00
5 1.00
6 1.00
7 1.00
8 1.00
9 1.00
10 1.00
11 1.00
12 1.00
13 1.00
14 1.00
15 1.00
16 1.00
17 1.00
18 1.00
19 1.00
20 1.00

#	Created by:	Discovery Studio
#	Creation time:	2024-01-04T22:02:45Z

@<TRIPOS>MOLECULE
molindone
    9     7     0 0 0
SMALL
USER_CHARGES


@<TRIPOS>ATOM
      1 O1            1.542199    0.051608   -1.753544 O.2      1 SUBUNIT   -0.2936
      2 N4           -2.476801   -0.151592   -0.691244 N.3      1 SUBUNIT    0.1369
      3 C9            1.437699   -0.403692   -0.546944 C.2      1 SUBUNIT    0.1706
      4 C11           2.655400   -0.600293    0.427156 C.2      1 SUBUNIT    0.0365
      5 C12           2.592900   -1.319292    1.636256 C.2      1 SUBUNIT    0.0068
      6 C15           4.117599   -0.046192    0.255456 C.2      1 SUBUNIT   -0.0224
      7 C16           4.882400   -0.454792    1.383956 C.2      1 SUBUNIT   -0.0036
      8 N17           3.950300   -1.248192    2.270256 N.pl3    1 SUBUNIT   -0.2653
      9 H22          -2.203001    0.586607    0.023956 H        1 SUBUNIT    0.2300
@<TRIPOS>BOND
     1    1    3 2
     2    2    9 1
     3    4    5 2
     4    4    6 1
     5    5    8 1
     6    6    7 2
     7    7    8 1
@<SCITEGIC>ATOM_PROPERTY
Formal Charge
SciTegic.value.StringValue
1 0
2 0
3 0
4 0
5 0
6 0
7 0
8 0
9 0

@<SCITEGIC>ATOM_PROPERTY
pdb_tempFactor
SciTegic.value.DoubleValue
1 0.00
2 0.00
3 0.00
4 0.00
5 0.00
6 0.00
7 0.00
8 0.00
9 0.00

@<SCITEGIC>ATOM_PROPERTY
pdb_occupancy
SciTegic.value.DoubleValue
1 1.00
2 1.00
3 1.00
4 1.00
5 1.00
6 1.00
7 1.00
8 1.00
9 1.00

