#	Created by:	Discovery Studio
#	Creation time:	2024-01-04T21:02:10Z

@<TRIPOS>MOLECULE
RU22249
   31    32     0 0 0
SMALL
USER_CHARGES


@<TRIPOS>ATOM
      1 C1            2.864400   -2.812900    0.309700 C.2      1 SUBUNIT   -0.0616
      2 C2            2.754300   -1.676700   -0.498800 C.2      1 SUBUNIT   -0.0547
      3 C3            1.498600   -1.116000   -0.762500 C.2      1 SUBUNIT   -0.0227
      4 C4            1.405500    0.096100   -1.598000 C.2      1 SUBUNIT   -0.0583
      5 C5            0.640600    1.139300   -1.224700 C.2      1 SUBUNIT   -0.0795
      6 C6           -1.283600    0.234800    0.130000 C.3      1 SUBUNIT   -0.0416
      7 C7            0.339900   -1.702100   -0.226200 C.2      1 SUBUNIT   -0.0407
      8 C8            1.714800   -3.392400    0.855000 C.2      1 SUBUNIT   -0.0619
      9 C9            0.459100   -2.839200    0.585000 C.2      1 SUBUNIT   -0.0584
     10 C10          -0.072800    1.194500    0.113800 C.3      1 SUBUNIT   -0.0101
     11 C11          -0.492100    2.631600    0.498900 C.3      1 SUBUNIT    0.0012
     12 C12          -1.022400   -1.122200   -0.553100 C.3      1 SUBUNIT   -0.0267
     13 N13           0.665400    3.499400    0.666000 N.3      1 SUBUNIT   -0.3191
     14 H14           1.211400    3.529800   -0.201500 H        1 SUBUNIT    0.1219
     15 C15           0.292100    4.852200    1.041600 C.3      1 SUBUNIT   -0.0163
     16 H16           3.858900   -3.250500    0.519900 H        1 SUBUNIT    0.0622
     17 H17           3.668000   -1.217300   -0.921800 H        1 SUBUNIT    0.0629
     18 H18           1.901400    0.103600   -2.588000 H        1 SUBUNIT    0.0625
     19 H19           0.516500    1.992700   -1.919100 H        1 SUBUNIT    0.0579
     20 H20          -1.586900    0.063000    1.195600 H        1 SUBUNIT    0.0276
     21 H21          -2.156500    0.718600   -0.378500 H        1 SUBUNIT    0.0276
     22 H22           1.798700   -4.291300    1.496000 H        1 SUBUNIT    0.0622
     23 H23          -0.442800   -3.313400    1.016000 H        1 SUBUNIT    0.0625
     24 H24           0.653600    0.844000    0.893600 H        1 SUBUNIT    0.0359
     25 H25          -1.170500    3.049600   -0.288200 H        1 SUBUNIT    0.0433
     26 H26          -1.063500    2.596500    1.462400 H        1 SUBUNIT    0.0433
     27 H27          -1.837100   -1.839200   -0.279800 H        1 SUBUNIT    0.0316
     28 H28          -1.094200   -1.011400   -1.665500 H        1 SUBUNIT    0.0316
     29 H29           1.214900    5.470000    1.168700 H        1 SUBUNIT    0.0391
     30 H30          -0.338100    5.325100    0.247200 H        1 SUBUNIT    0.0391
     31 H31          -0.264600    4.857100    2.012300 H        1 SUBUNIT    0.0391
@<TRIPOS>BOND
     1    1    8 1
     2    1    2 2
     3    1   16 1
     4    2    3 1
     5    2   17 1
     6    3    4 1
     7    3    7 2
     8    4    5 2
     9    4   18 1
    10    5   10 1
    11    5   19 1
    12    6   10 1
    13    6   12 1
    14    6   20 1
    15    6   21 1
    16    7   12 1
    17    7    9 1
    18    8    9 2
    19    8   22 1
    20    9   23 1
    21   10   11 1
    22   10   24 1
    23   11   13 1
    24   11   25 1
    25   11   26 1
    26   12   27 1
    27   12   28 1
    28   13   15 1
    29   13   14 1
    30   15   29 1
    31   15   30 1
    32   15   31 1
@<SCITEGIC>ATOM_PROPERTY
Formal Charge
SciTegic.value.StringValue
1 0
2 0
3 0
4 0
5 0
6 0
7 0
8 0
9 0
10 0
11 0
12 0
13 0
14 0
15 0
16 0
17 0
18 0
19 0
20 0
21 0
22 0
23 0
24 0
25 0
26 0
27 0
28 0
29 0
30 0
31 0

@<SCITEGIC>ATOM_PROPERTY
pdb_tempFactor
SciTegic.value.DoubleValue
1 0.00
2 0.00
3 0.00
4 0.00
5 0.00
6 0.00
7 0.00
8 0.00
9 0.00
10 0.00
11 0.00
12 0.00
13 0.00
14 0.00
15 0.00
16 0.00
17 0.00
18 0.00
19 0.00
20 0.00
21 0.00
22 0.00
23 0.00
24 0.00
25 0.00
26 0.00
27 0.00
28 0.00
29 0.00
30 0.00
31 0.00

@<SCITEGIC>ATOM_PROPERTY
pdb_occupancy
SciTegic.value.DoubleValue
1 1.00
2 1.00
3 1.00
4 1.00
5 1.00
6 1.00
7 1.00
8 1.00
9 1.00
10 1.00
11 1.00
12 1.00
13 1.00
14 1.00
15 1.00
16 1.00
17 1.00
18 1.00
19 1.00
20 1.00
21 1.00
22 1.00
23 1.00
24 1.00
25 1.00
26 1.00
27 1.00
28 1.00
29 1.00
30 1.00
31 1.00

#	Created by:	Discovery Studio
#	Creation time:	2024-01-04T21:02:10Z

@<TRIPOS>MOLECULE
imipramine
   45    47     0 0 0
SMALL
USER_CHARGES


@<TRIPOS>ATOM
      1 C1           -2.995300   -1.425500   -3.244900 C.2      1 SUBUNIT   -0.0606
      2 C2           -2.090300   -0.848300   -2.350800 C.2      1 SUBUNIT   -0.0433
      3 C3           -1.579600   -1.557900   -1.249600 C.2      1 SUBUNIT    0.0250
      4 N4           -0.701000   -0.933100   -0.433800 N.pl3    1 SUBUNIT   -0.2443
      5 C5            0.499100   -1.507500   -0.229100 C.2      1 SUBUNIT    0.0250
      6 C6            1.668700   -0.989900   -0.801700 C.2      1 SUBUNIT   -0.0433
      7 C7            2.903200   -1.598600   -0.556000 C.2      1 SUBUNIT   -0.0606
      8 C8            2.973700   -2.728000    0.265200 C.2      1 SUBUNIT   -0.0618
      9 C9            1.808800   -3.244900    0.841100 C.2      1 SUBUNIT   -0.0574
     10 C10           0.572700   -2.634000    0.598600 C.2      1 SUBUNIT   -0.0291
     11 C11          -0.709900   -3.157600    1.199200 C.3      1 SUBUNIT   -0.0222
     12 C12          -1.556100   -3.793500    0.086900 C.3      1 SUBUNIT   -0.0222
     13 C13          -1.998200   -2.887900   -1.052600 C.2      1 SUBUNIT   -0.0291
     14 C14          -2.906700   -3.458700   -1.958800 C.2      1 SUBUNIT   -0.0574
     15 C15          -0.870600    0.486500   -0.082600 C.3      1 SUBUNIT    0.0094
     16 C16          -3.408300   -2.742800   -3.048300 C.2      1 SUBUNIT   -0.0618
     17 C17          -0.336100    0.812700    1.330000 C.3      1 SUBUNIT   -0.0268
     18 C18          -0.581200    2.284700    1.729200 C.3      1 SUBUNIT   -0.0012
     19 N19          -0.047200    3.270600    0.785600 N.3      1 SUBUNIT   -0.3092
     20 C20          -0.435500    4.621800    1.183200 C.3      1 SUBUNIT   -0.0136
     21 C21           1.404300    3.182800    0.648200 C.3      1 SUBUNIT   -0.0136
     22 H22          -3.379900   -0.845200   -4.106000 H        1 SUBUNIT    0.0623
     23 H23          -1.778200    0.192700   -2.554200 H        1 SUBUNIT    0.0639
     24 H24           1.630300   -0.099200   -1.456900 H        1 SUBUNIT    0.0639
     25 H25           3.824000   -1.187300   -1.012100 H        1 SUBUNIT    0.0623
     26 H26           3.949700   -3.211600    0.459200 H        1 SUBUNIT    0.0622
     27 H27           1.872200   -4.139100    1.489400 H        1 SUBUNIT    0.0626
     28 H28          -0.487300   -3.917800    1.990500 H        1 SUBUNIT    0.0320
     29 H29          -1.272300   -2.336300    1.709200 H        1 SUBUNIT    0.0320
     30 H30          -0.985000   -4.647900   -0.356300 H        1 SUBUNIT    0.0320
     31 H31          -2.473600   -4.223200    0.564400 H        1 SUBUNIT    0.0320
     32 H32          -3.243300   -4.502800   -1.816700 H        1 SUBUNIT    0.0626
     33 H33          -0.367100    1.126800   -0.849500 H        1 SUBUNIT    0.0439
     34 H34          -1.960600    0.740500   -0.090600 H        1 SUBUNIT    0.0439
     35 H35          -4.123400   -3.214000   -3.749000 H        1 SUBUNIT    0.0622
     36 H36          -0.851100    0.150100    2.072900 H        1 SUBUNIT    0.0293
     37 H37           0.752400    0.572800    1.414600 H        1 SUBUNIT    0.0293
     38 H38          -1.689700    2.423900    1.808200 H        1 SUBUNIT    0.0430
     39 H39          -0.160100    2.463700    2.752200 H        1 SUBUNIT    0.0430
     40 H40          -1.548700    4.715100    1.231700 H        1 SUBUNIT    0.0394
     41 H41          -0.009600    4.893800    2.181400 H        1 SUBUNIT    0.0394
     42 H42          -0.084900    5.369700    0.428800 H        1 SUBUNIT    0.0394
     43 H43           1.780500    3.965100   -0.057000 H        1 SUBUNIT    0.0394
     44 H44           1.917000    3.314600    1.633600 H        1 SUBUNIT    0.0394
     45 H45           1.712000    2.204800    0.207500 H        1 SUBUNIT    0.0394
@<TRIPOS>BOND
     1    1   16 1
     2    1    2 2
     3    1   22 1
     4    2    3 1
     5    2   23 1
     6    3    4 1
     7    3   13 2
     8    4    5 1
     9    4   15 1
    10    5    6 1
    11    5   10 2
    12    6    7 2
    13    6   24 1
    14    7    8 1
    15    7   25 1
    16    8    9 2
    17    8   26 1
    18    9   10 1
    19    9   27 1
    20   10   11 1
    21   11   12 1
    22   11   28 1
    23   11   29 1
    24   12   13 1
    25   12   30 1
    26   12   31 1
    27   13   14 1
    28   14   16 2
    29   14   32 1
    30   15   17 1
    31   15   33 1
    32   15   34 1
    33   16   35 1
    34   17   18 1
    35   17   36 1
    36   17   37 1
    37   18   19 1
    38   18   38 1
    39   18   39 1
    40   19   20 1
    41   19   21 1
    42   20   40 1
    43   20   41 1
    44   20   42 1
    45   21   43 1
    46   21   44 1
    47   21   45 1
@<SCITEGIC>ATOM_PROPERTY
Formal Charge
SciTegic.value.StringValue
1 0
2 0
3 0
4 0
5 0
6 0
7 0
8 0
9 0
10 0
11 0
12 0
13 0
14 0
15 0
16 0
17 0
18 0
19 0
20 0
21 0
22 0
23 0
24 0
25 0
26 0
27 0
28 0
29 0
30 0
31 0
32 0
33 0
34 0
35 0
36 0
37 0
38 0
39 0
40 0
41 0
42 0
43 0
44 0
45 0

@<SCITEGIC>ATOM_PROPERTY
pdb_tempFactor
SciTegic.value.DoubleValue
1 0.00
2 0.00
3 0.00
4 0.00
5 0.00
6 0.00
7 0.00
8 0.00
9 0.00
10 0.00
11 0.00
12 0.00
13 0.00
14 0.00
15 0.00
16 0.00
17 0.00
18 0.00
19 0.00
20 0.00
21 0.00
22 0.00
23 0.00
24 0.00
25 0.00
26 0.00
27 0.00
28 0.00
29 0.00
30 0.00
31 0.00
32 0.00
33 0.00
34 0.00
35 0.00
36 0.00
37 0.00
38 0.00
39 0.00
40 0.00
41 0.00
42 0.00
43 0.00
44 0.00
45 0.00

@<SCITEGIC>ATOM_PROPERTY
pdb_occupancy
SciTegic.value.DoubleValue
1 1.00
2 1.00
3 1.00
4 1.00
5 1.00
6 1.00
7 1.00
8 1.00
9 1.00
10 1.00
11 1.00
12 1.00
13 1.00
14 1.00
15 1.00
16 1.00
17 1.00
18 1.00
19 1.00
20 1.00
21 1.00
22 1.00
23 1.00
24 1.00
25 1.00
26 1.00
27 1.00
28 1.00
29 1.00
30 1.00
31 1.00
32 1.00
33 1.00
34 1.00
35 1.00
36 1.00
37 1.00
38 1.00
39 1.00
40 1.00
41 1.00
42 1.00
43 1.00
44 1.00
45 1.00

