#	Copyright: drugdesign.org
#	Creation time:	2024-01-04T21:47:00Z

@<TRIPOS>MOLECULE
SP
  139   141     0 0 0
SMALL
USER_CHARGES


@<TRIPOS>ATOM
      1 C20          -0.259016   -5.406691    2.795404 C.2      1 SUBUNIT    0.2330
      2 O21          -0.986685   -5.579680    3.782887 O.2      1 SUBUNIT   -0.2755
      3 H24           0.236486   -5.953228    0.887811 H        1 SUBUNIT    0.1502
      4 N25          -0.389785   -6.127162    1.673511 N.am     1 SUBUNIT   -0.3021
      5 C26          -1.397212   -7.172377    1.461296 C.3      1 SUBUNIT    0.0995
      6 C27          -0.898939   -7.995763    0.260394 C.2      1 SUBUNIT    0.2354
      7 O28          -0.302326   -7.395205   -0.647035 O.2      1 SUBUNIT   -0.2753
      8 C29          -2.759392   -6.483415    1.164759 C.3      1 SUBUNIT   -0.0257
      9 C30          -3.941023   -7.466597    1.015411 C.3      1 SUBUNIT   -0.0476
     10 C31          -5.235296   -6.709658    0.638794 C.3      1 SUBUNIT   -0.0189
     11 C32          -6.396825   -7.711397    0.464237 C.3      1 SUBUNIT    0.0593
     12 N33          -7.609591   -7.007210   -0.023609 N.3      1 SUBUNIT    0.2222
     13 C34          -1.753696  -10.189248    1.197731 C.3      1 SUBUNIT    0.0151
     14 N35          -1.106239   -9.333148    0.199654 N.am     1 SUBUNIT   -0.2883
     15 C36          -0.673124  -10.134623   -0.946593 C.3      1 SUBUNIT    0.1022
     16 C37          -1.192059   -9.547635   -2.276717 C.2      1 SUBUNIT    0.2330
     17 O38          -0.420959   -9.404828   -3.236272 O.2      1 SUBUNIT   -0.2755
     18 C39          -1.176261  -11.573061   -0.678463 C.3      1 SUBUNIT   -0.0241
     19 C40          -2.250950  -11.410940    0.413277 C.3      1 SUBUNIT   -0.0350
     20 H41          -3.069049   -9.313920   -1.512774 H        1 SUBUNIT    0.1502
     21 N42          -2.480810   -9.153583   -2.325073 N.am     1 SUBUNIT   -0.3021
     22 C43          -3.082040   -8.484768   -3.488671 C.3      1 SUBUNIT    0.0998
     23 C44          -2.248451   -7.258930   -3.943209 C.2      1 SUBUNIT    0.2328
     24 O45          -2.128218   -6.987048   -5.141604 O.2      1 SUBUNIT   -0.2755
     25 C46          -4.535287   -8.077088   -3.141682 C.3      1 SUBUNIT   -0.0172
     26 C47          -5.307281   -7.548857   -4.375149 C.3      1 SUBUNIT    0.0264
     27 C48          -6.763527   -7.171239   -4.043353 C.2      1 SUBUNIT    0.2092
     28 O49          -7.160768   -7.118580   -2.877244 O.2      1 SUBUNIT   -0.2779
     29 N50          -7.579366   -6.898674   -5.069908 N.am     1 SUBUNIT   -0.3292
     30 H51          -8.545082   -6.646595   -4.870760 H        1 SUBUNIT    0.1455
     31 H52          -7.238032   -6.939800   -6.023487 H        1 SUBUNIT    0.1455
     32 H53          -1.686823   -6.874770   -2.026962 H        1 SUBUNIT    0.1502
     33 N54          -1.671986   -6.522265   -2.982733 N.am     1 SUBUNIT   -0.3021
     34 C55          -0.909846   -5.289751   -3.224756 C.3      1 SUBUNIT    0.0998
     35 C56           0.529965   -5.598324   -3.703262 C.2      1 SUBUNIT    0.2328
     36 O57           1.252754   -4.672177   -4.098448 O.2      1 SUBUNIT   -0.2755
     37 C58          -0.912791   -4.485476   -1.910849 C.3      1 SUBUNIT   -0.0172
     38 C59          -0.476764   -3.006517   -2.025002 C.3      1 SUBUNIT    0.0264
     39 C60          -0.374041   -2.401285   -0.623766 C.2      1 SUBUNIT    0.2092
     40 O61           0.704830   -1.979592   -0.192978 O.2      1 SUBUNIT   -0.2779
     41 N62          -1.485963   -2.408069    0.123368 N.am     1 SUBUNIT   -0.3292
     42 H63          -1.409037   -2.129810    1.102237 H        1 SUBUNIT    0.1455
     43 H64          -2.363911   -2.761749   -0.241804 H        1 SUBUNIT    0.1455
     44 H65           0.307218   -7.600431   -3.336311 H        1 SUBUNIT    0.1502
     45 N66           0.962476   -6.876563   -3.644410 N.am     1 SUBUNIT   -0.3018
     46 C67           2.322607   -7.299392   -4.008596 C.3      1 SUBUNIT    0.1033
     47 C68           2.251218   -8.422344   -5.050490 C.2      1 SUBUNIT    0.2331
     48 O69           2.474563   -8.182042   -6.241285 O.2      1 SUBUNIT   -0.2755
     49 C70           3.088443   -7.721345   -2.733063 C.3      1 SUBUNIT   -0.0005
     50 C71           4.500720   -8.281547   -2.995909 C.ar     1 SUBUNIT   -0.0456
     51 C72           5.526932   -7.417872   -3.463354 C.ar     1 SUBUNIT   -0.0590
     52 C73           7.098359   -9.304788   -3.520199 C.ar     1 SUBUNIT   -0.0622
     53 C74           6.076276  -10.169029   -3.049611 C.ar     1 SUBUNIT   -0.0620
     54 C75           4.779337   -9.658613   -2.785854 C.ar     1 SUBUNIT   -0.0590
     55 C76           6.823615   -7.929255   -3.726411 C.ar     1 SUBUNIT   -0.0620
     56 H77           1.500307   -9.715102   -3.679511 H        1 SUBUNIT    0.1502
     57 N78           1.883147   -9.643495   -4.618999 N.am     1 SUBUNIT   -0.3018
     58 C79           1.711036  -10.788425   -5.510244 C.3      1 SUBUNIT    0.1033
     59 C80           0.672478  -10.438893   -6.593485 C.2      1 SUBUNIT    0.2329
     60 O81           0.871152  -10.725910   -7.775253 O.2      1 SUBUNIT   -0.2755
     61 C82           1.275539  -12.026331   -4.688109 C.3      1 SUBUNIT   -0.0005
     62 C83           1.086543  -13.301653   -5.519464 C.ar     1 SUBUNIT   -0.0456
     63 C84           2.211740  -14.096750   -5.858595 C.ar     1 SUBUNIT   -0.0590
     64 C85           0.744684  -15.653381   -7.051548 C.ar     1 SUBUNIT   -0.0622
     65 C86          -0.379548  -14.855688   -6.722005 C.ar     1 SUBUNIT   -0.0620
     66 C87          -0.209550  -13.680841   -5.957572 C.ar     1 SUBUNIT   -0.0590
     67 C88           2.040445  -15.272358   -6.621425 C.ar     1 SUBUNIT   -0.0620
     68 H89          -0.520180   -9.547810   -5.198188 H        1 SUBUNIT    0.1500
     69 N90          -0.431438   -9.784743   -6.185837 N.am     1 SUBUNIT   -0.3048
     70 C91          -1.490384   -9.376492   -7.116036 C.3      1 SUBUNIT    0.0882
     71 C92          -1.156217   -8.092940   -7.911042 C.2      1 SUBUNIT    0.2296
     72 O93          -2.000227   -7.637804   -8.700128 O.2      1 SUBUNIT   -0.2759
     73 H94           0.755123   -7.926238   -7.143103 H        1 SUBUNIT    0.1502
     74 N95           0.044782   -7.494940   -7.741230 N.am     1 SUBUNIT   -0.3023
     75 C96           0.392423   -6.221531   -8.394683 C.3      1 SUBUNIT    0.0995
     76 C97           0.799428   -6.464640   -9.858918 C.2      1 SUBUNIT    0.2328
     77 O98           1.949526   -6.216218  -10.260905 O.2      1 SUBUNIT   -0.2755
     78 C99           1.500902   -5.510030   -7.583735 C.3      1 SUBUNIT   -0.0235
     79 C100          1.715199   -4.019445   -7.964444 C.3      1 SUBUNIT   -0.0449
     80 C101          0.520311   -3.132672   -7.541764 C.3      1 SUBUNIT   -0.0627
     81 C102          2.995178   -3.508767   -7.267671 C.3      1 SUBUNIT   -0.0627
     82 H103         -1.074492   -7.131981  -10.262534 H        1 SUBUNIT    0.1502
     83 N104         -0.156825   -6.937774  -10.675090 N.am     1 SUBUNIT   -0.3021
     84 H117         -7.586836   -6.034522    0.266045 H        1 SUBUNIT    0.2653
     85 H118         -7.616508   -7.042513   -1.044939 H        1 SUBUNIT    0.2653
     86 H134         -1.479638   -7.817842    2.364249 H        1 SUBUNIT    0.0605
     87 H135         -2.988179   -5.785209    2.000869 H        1 SUBUNIT    0.0291
     88 H136         -2.661651   -5.906812    0.217804 H        1 SUBUNIT    0.0291
     89 H137         -3.703660   -8.205412    0.217529 H        1 SUBUNIT    0.0269
     90 H138         -4.096764   -8.000781    1.979372 H        1 SUBUNIT    0.0269
     91 H139         -5.488965   -5.986767    1.446156 H        1 SUBUNIT    0.0304
     92 H140         -5.076692   -6.158078   -0.314875 H        1 SUBUNIT    0.0304
     93 H141         -6.102659   -8.491866   -0.272635 H        1 SUBUNIT    0.0711
     94 H142         -6.618880   -8.192200    1.443242 H        1 SUBUNIT    0.0711
     95 H144         -1.025071  -10.497237    1.980680 H        1 SUBUNIT    0.0470
     96 H145         -2.606701   -9.657270    1.675273 H        1 SUBUNIT    0.0470
     97 H146          0.439507  -10.145996   -0.972739 H        1 SUBUNIT    0.0607
     98 H147         -0.344981  -12.219938   -0.319110 H        1 SUBUNIT    0.0291
     99 H148         -1.615956  -12.014330   -1.600751 H        1 SUBUNIT    0.0291
    100 H149         -3.252301  -11.220701   -0.033955 H        1 SUBUNIT    0.0283
    101 H150         -2.301834  -12.312555    1.063802 H        1 SUBUNIT    0.0283
    102 H151         -3.116314   -9.213226   -4.329429 H        1 SUBUNIT    0.0605
    103 H152         -5.070075   -8.965815   -2.738012 H        1 SUBUNIT    0.0296
    104 H153         -4.508219   -7.278496   -2.366954 H        1 SUBUNIT    0.0296
    105 H154         -4.784173   -6.646730   -4.764350 H        1 SUBUNIT    0.0365
    106 H155         -5.313016   -8.339512   -5.158440 H        1 SUBUNIT    0.0365
    107 H156         -1.428894   -4.695665   -4.009820 H        1 SUBUNIT    0.0605
    108 H157         -1.947041   -4.505941   -1.500143 H        1 SUBUNIT    0.0296
    109 H158         -0.222402   -4.991196   -1.199218 H        1 SUBUNIT    0.0296
    110 H159          0.513661   -2.948150   -2.529272 H        1 SUBUNIT    0.0365
    111 H160         -1.228594   -2.441653   -2.620411 H        1 SUBUNIT    0.0365
    112 H161          2.850022   -6.431330   -4.463660 H        1 SUBUNIT    0.0608
    113 H162          3.184062   -6.830384   -2.072991 H        1 SUBUNIT    0.0340
    114 H163          2.493752   -8.505047   -2.212541 H        1 SUBUNIT    0.0340
    115 H164          5.334843   -6.447113   -3.607323 H        1 SUBUNIT    0.0626
    116 H165          8.012180   -9.665723   -3.706361 H        1 SUBUNIT    0.0623
    117 H166          6.270420  -11.139091   -2.903708 H        1 SUBUNIT    0.0623
    118 H167          4.060709  -10.268536   -2.451837 H        1 SUBUNIT    0.0626
    119 H168          7.543922   -7.319601   -4.057288 H        1 SUBUNIT    0.0623
    120 H169          2.683980  -11.009127   -6.003540 H        1 SUBUNIT    0.0608
    121 H170          1.975122  -12.204509   -3.996130 H        1 SUBUNIT    0.0340
    122 H172          3.125646  -13.824569   -5.557442 H        1 SUBUNIT    0.0626
    123 H173          0.623348  -16.487732   -7.589262 H        1 SUBUNIT    0.0623
    124 H174         -1.291967  -15.124612   -7.030506 H        1 SUBUNIT    0.0623
    125 H175         -1.001470  -13.116271   -5.724926 H        1 SUBUNIT    0.0626
    126 H176          2.832230  -15.835491   -6.857977 H        1 SUBUNIT    0.0623
    127 H177         -1.661550  -10.204443   -7.839880 H        1 SUBUNIT    0.0567
    128 H178         -2.421306   -9.196978   -6.532800 H        1 SUBUNIT    0.0567
    129 H179         -0.511326   -5.571964   -8.389844 H        1 SUBUNIT    0.0605
    130 H180          1.230129   -5.559063   -6.505288 H        1 SUBUNIT    0.0293
    131 H181          2.457855   -6.053490   -7.749706 H        1 SUBUNIT    0.0293
    132 H182          1.849194   -3.943675   -9.066770 H        1 SUBUNIT    0.0298
    133 H183          0.710383   -2.074776   -7.830639 H        1 SUBUNIT    0.0233
    134 H184         -0.405008   -3.493617   -8.044019 H        1 SUBUNIT    0.0233
    135 H185          0.382785   -3.196975   -6.439147 H        1 SUBUNIT    0.0233
    136 H186          3.169153   -2.440377   -7.526601 H        1 SUBUNIT    0.0233
    137 H187          2.882191   -3.609375   -6.165032 H        1 SUBUNIT    0.0233
    138 H188          3.865961   -4.117286   -7.599730 H        1 SUBUNIT    0.0233
    139 H279          0.407815  -11.814171   -4.238616 H        1 SUBUNIT    0.0000
@<TRIPOS>BOND
     1    1    2 2
     2    1    4 1
     3    3    4 1
     4    4    5 1
     5    5    6 1
     6    5    8 1
     7    5   86 1
     8    6    7 2
     9    6   14 1
    10    8    9 1
    11    8   87 1
    12    8   88 1
    13    9   10 1
    14    9   89 1
    15    9   90 1
    16   10   11 1
    17   10   91 1
    18   10   92 1
    19   11   12 1
    20   11   93 1
    21   11   94 1
    22   12   84 1
    23   12   85 1
    24   13   14 1
    25   13   19 1
    26   13   95 1
    27   13   96 1
    28   14   15 1
    29   15   16 1
    30   15   18 1
    31   15   97 1
    32   16   17 2
    33   16   21 1
    34   18   19 1
    35   18   98 1
    36   18   99 1
    37   19  100 1
    38   19  101 1
    39   20   21 1
    40   21   22 1
    41   22   23 1
    42   22   25 1
    43   22  102 1
    44   23   24 2
    45   23   33 1
    46   25   26 1
    47   25  103 1
    48   25  104 1
    49   26   27 1
    50   26  105 1
    51   26  106 1
    52   27   28 2
    53   27   29 1
    54   29   30 1
    55   29   31 1
    56   32   33 1
    57   33   34 1
    58   34   35 1
    59   34   37 1
    60   34  107 1
    61   35   36 2
    62   35   45 1
    63   37   38 1
    64   37  108 1
    65   37  109 1
    66   38   39 1
    67   38  110 1
    68   38  111 1
    69   39   40 2
    70   39   41 1
    71   41   42 1
    72   41   43 1
    73   44   45 1
    74   45   46 1
    75   46   47 1
    76   46   49 1
    77   46  112 1
    78   47   48 2
    79   47   57 1
    80   49   50 1
    81   49  113 1
    82   49  114 1
    83   50   51 ar
    84   50   54 ar
    85   51   55 ar
    86   51  115 1
    87   52   55 ar
    88   52   53 ar
    89   52  116 1
    90   53   54 ar
    91   53  117 1
    92   54  118 1
    93   55  119 1
    94   56   57 1
    95   57   58 1
    96   58   59 1
    97   58   61 1
    98   58  120 1
    99   59   60 2
   100   59   69 1
   101   61   62 1
   102   61  121 1
   103   62   63 ar
   104   62   66 ar
   105   63   67 ar
   106   63  122 1
   107   64   67 ar
   108   64   65 ar
   109   64  123 1
   110   65   66 ar
   111   65  124 1
   112   66  125 1
   113   67  126 1
   114   68   69 1
   115   69   70 1
   116   70   71 1
   117   70  127 1
   118   70  128 1
   119   71   72 2
   120   71   74 1
   121   73   74 1
   122   74   75 1
   123   75   76 1
   124   75   78 1
   125   75  129 1
   126   76   77 2
   127   76   83 1
   128   78   79 1
   129   78  130 1
   130   78  131 1
   131   79   80 1
   132   79   81 1
   133   79  132 1
   134   80  133 1
   135   80  134 1
   136   80  135 1
   137   81  136 1
   138   81  137 1
   139   81  138 1
   140   82   83 1
   141   61  139 1
@<SCITEGIC>ATOM_PROPERTY
Formal Charge
SciTegic.value.StringValue
1 0
2 0
3 0
4 0
5 0
6 0
7 0
8 0
9 0
10 0
11 0
12 0
13 0
14 0
15 0
16 0
17 0
18 0
19 0
20 0
21 0
22 0
23 0
24 0
25 0
26 0
27 0
28 0
29 0
30 0
31 0
32 0
33 0
34 0
35 0
36 0
37 0
38 0
39 0
40 0
41 0
42 0
43 0
44 0
45 0
46 0
47 0
48 0
49 0
50 0
51 0
52 0
53 0
54 0
55 0
56 0
57 0
58 0
59 0
60 0
61 0
62 0
63 0
64 0
65 0
66 0
67 0
68 0
69 0
70 0
71 0
72 0
73 0
74 0
75 0
76 0
77 0
78 0
79 0
80 0
81 0
82 0
83 0
84 0
85 0
86 0
87 0
88 0
89 0
90 0
91 0
92 0
93 0
94 0
95 0
96 0
97 0
98 0
99 0
100 0
101 0
102 0
103 0
104 0
105 0
106 0
107 0
108 0
109 0
110 0
111 0
112 0
113 0
114 0
115 0
116 0
117 0
118 0
119 0
120 0
121 0
122 0
123 0
124 0
125 0
126 0
127 0
128 0
129 0
130 0
131 0
132 0
133 0
134 0
135 0
136 0
137 0
138 0
139 0

@<SCITEGIC>ATOM_PROPERTY
pdb_tempFactor
SciTegic.value.DoubleValue
1 0.00
2 0.00
3 0.00
4 0.00
5 0.00
6 0.00
7 0.00
8 0.00
9 0.00
10 0.00
11 0.00
12 0.00
13 0.00
14 0.00
15 0.00
16 0.00
17 0.00
18 0.00
19 0.00
20 0.00
21 0.00
22 0.00
23 0.00
24 0.00
25 0.00
26 0.00
27 0.00
28 0.00
29 0.00
30 0.00
31 0.00
32 0.00
33 0.00
34 0.00
35 0.00
36 0.00
37 0.00
38 0.00
39 0.00
40 0.00
41 0.00
42 0.00
43 0.00
44 0.00
45 0.00
46 0.00
47 0.00
48 0.00
49 0.00
50 0.00
51 0.00
52 0.00
53 0.00
54 0.00
55 0.00
56 0.00
57 0.00
58 0.00
59 0.00
60 0.00
61 0.00
62 0.00
63 0.00
64 0.00
65 0.00
66 0.00
67 0.00
68 0.00
69 0.00
70 0.00
71 0.00
72 0.00
73 0.00
74 0.00
75 0.00
76 0.00
77 0.00
78 0.00
79 0.00
80 0.00
81 0.00
82 0.00
83 0.00
84 0.00
85 0.00
86 0.00
87 0.00
88 0.00
89 0.00
90 0.00
91 0.00
92 0.00
93 0.00
94 0.00
95 0.00
96 0.00
97 0.00
98 0.00
99 0.00
100 0.00
101 0.00
102 0.00
103 0.00
104 0.00
105 0.00
106 0.00
107 0.00
108 0.00
109 0.00
110 0.00
111 0.00
112 0.00
113 0.00
114 0.00
115 0.00
116 0.00
117 0.00
118 0.00
119 0.00
120 0.00
121 0.00
122 0.00
123 0.00
124 0.00
125 0.00
126 0.00
127 0.00
128 0.00
129 0.00
130 0.00
131 0.00
132 0.00
133 0.00
134 0.00
135 0.00
136 0.00
137 0.00
138 0.00
139 0.00

@<SCITEGIC>ATOM_PROPERTY
pdb_occupancy
SciTegic.value.DoubleValue
1 1.00
2 1.00
3 1.00
4 1.00
5 1.00
6 1.00
7 1.00
8 1.00
9 1.00
10 1.00
11 1.00
12 1.00
13 1.00
14 1.00
15 1.00
16 1.00
17 1.00
18 1.00
19 1.00
20 1.00
21 1.00
22 1.00
23 1.00
24 1.00
25 1.00
26 1.00
27 1.00
28 1.00
29 1.00
30 1.00
31 1.00
32 1.00
33 1.00
34 1.00
35 1.00
36 1.00
37 1.00
38 1.00
39 1.00
40 1.00
41 1.00
42 1.00
43 1.00
44 1.00
45 1.00
46 1.00
47 1.00
48 1.00
49 1.00
50 1.00
51 1.00
52 1.00
53 1.00
54 1.00
55 1.00
56 1.00
57 1.00
58 1.00
59 1.00
60 1.00
61 1.00
62 1.00
63 1.00
64 1.00
65 1.00
66 1.00
67 1.00
68 1.00
69 1.00
70 1.00
71 1.00
72 1.00
73 1.00
74 1.00
75 1.00
76 1.00
77 1.00
78 1.00
79 1.00
80 1.00
81 1.00
82 1.00
83 1.00
84 1.00
85 1.00
86 1.00
87 1.00
88 1.00
89 1.00
90 1.00
91 1.00
92 1.00
93 1.00
94 1.00
95 1.00
96 1.00
97 1.00
98 1.00
99 1.00
100 1.00
101 1.00
102 1.00
103 1.00
104 1.00
105 1.00
106 1.00
107 1.00
108 1.00
109 1.00
110 1.00
111 1.00
112 1.00
113 1.00
114 1.00
115 1.00
116 1.00
117 1.00
118 1.00
119 1.00
120 1.00
121 1.00
122 1.00
123 1.00
124 1.00
125 1.00
126 1.00
127 1.00
128 1.00
129 1.00
130 1.00
131 1.00
132 1.00
133 1.00
134 1.00
135 1.00
136 1.00
137 1.00
138 1.00
139 1.00

#	Copyright: drugdesign.org
#	Creation time:	2024-01-04T21:47:00Z

@<TRIPOS>MOLECULE
cGP
   66    69     0 0 0
SMALL
USER_CHARGES


@<TRIPOS>ATOM
      1 O1           -1.997642   10.385761    4.062206 O.2      1 SUBUNIT   -0.2717
      2 C2           -1.477654    9.343704    4.469920 C.2      1 SUBUNIT    0.2458
      3 C3           -2.358494    8.329074    5.142288 C.ar     1 SUBUNIT    0.0378
      4 C4           -3.110228    8.667753    6.283302 C.ar     1 SUBUNIT   -0.0467
      5 C5           -3.927087    7.699098    6.896812 C.ar     1 SUBUNIT   -0.0501
      6 C6           -4.010500    6.393754    6.378019 C.ar     1 SUBUNIT   -0.0563
      7 C7           -3.267661    6.055927    5.234141 C.ar     1 SUBUNIT   -0.0501
      8 C8           -2.445289    7.019911    4.619797 C.ar     1 SUBUNIT   -0.0467
      9 C9           -4.739323    8.067204    8.144353 C.3      1 SUBUNIT   -0.0397
     10 C10          -3.350843    4.637278    4.652740 C.3      1 SUBUNIT   -0.0397
     11 N11          -0.143080    9.103736    4.307907 N.am     1 SUBUNIT   -0.2941
     12 C12           0.401233    7.734632    4.436293 C.3      1 SUBUNIT    0.0185
     13 C13           1.527767    7.402873    3.432374 C.3      1 SUBUNIT    0.0001
     14 C14           2.640492    8.477977    3.438835 C.3      1 SUBUNIT    0.0758
     15 C15           1.925797    9.794248    3.021812 C.3      1 SUBUNIT    0.0033
     16 C16           0.789520   10.219057    3.989790 C.3      1 SUBUNIT    0.0334
     17 N17           3.720583    8.090951    2.491136 N.3      1 SUBUNIT    0.2360
     18 C18           5.091819    8.283073    3.044053 C.3      1 SUBUNIT    0.0656
     19 C19           6.074870    8.849890    1.993527 C.3      1 SUBUNIT    0.0065
     20 C20           6.612372    7.816844    1.041100 C.ar     1 SUBUNIT   -0.0444
     21 C21           6.008292    6.544430    0.987128 C.ar     1 SUBUNIT   -0.0589
     22 C22           6.499829    5.568390    0.106188 C.ar     1 SUBUNIT   -0.0620
     23 C23           7.595314    5.862285   -0.722939 C.ar     1 SUBUNIT   -0.0622
     24 C24           8.198294    7.133139   -0.673051 C.ar     1 SUBUNIT   -0.0620
     25 C25           7.707446    8.109784    0.207640 C.ar     1 SUBUNIT   -0.0589
     26 H26           3.618743    7.165826    2.265025 H        1 SUBUNIT    0.2678
     27 C27           1.375347   10.894668    5.266375 C.3      1 SUBUNIT   -0.0089
     28 C28           2.359883   12.047145    4.997925 C.ar     1 SUBUNIT   -0.0462
     29 C29           1.873509   13.333923    4.693840 C.ar     1 SUBUNIT   -0.0590
     30 C30           2.771732   14.387261    4.452566 C.ar     1 SUBUNIT   -0.0620
     31 C31           4.158140   14.157447    4.516674 C.ar     1 SUBUNIT   -0.0622
     32 C32           4.646542   12.874443    4.823502 C.ar     1 SUBUNIT   -0.0620
     33 C33           3.748995   11.820787    5.065018 C.ar     1 SUBUNIT   -0.0590
     34 H34          -3.064112    9.594108    6.657122 H        1 SUBUNIT    0.0634
     35 H35          -4.593697    5.712063    6.819809 H        1 SUBUNIT    0.0628
     36 H36          -1.917945    6.775231    3.806139 H        1 SUBUNIT    0.0634
     37 H37          -5.324536    7.186399    8.491221 H        1 SUBUNIT    0.0280
     38 H38          -4.048399    8.395085    8.953081 H        1 SUBUNIT    0.0280
     39 H39          -5.434470    8.901764    7.901274 H        1 SUBUNIT    0.0280
     40 H40          -2.699325    4.555352    3.754086 H        1 SUBUNIT    0.0280
     41 H41          -3.018724    3.902266    5.419687 H        1 SUBUNIT    0.0280
     42 H42          -4.403673    4.414144    4.368909 H        1 SUBUNIT    0.0280
     43 H43           0.805252    7.614686    5.466465 H        1 SUBUNIT    0.0471
     44 H44          -0.430567    7.012057    4.279047 H        1 SUBUNIT    0.0471
     45 H45           1.974511    6.420304    3.703974 H        1 SUBUNIT    0.0323
     46 H46           1.092331    7.341122    2.409932 H        1 SUBUNIT    0.0323
     47 H47           3.058108    8.583488    4.465071 H        1 SUBUNIT    0.0751
     48 H48           2.682338   10.609837    2.987496 H        1 SUBUNIT    0.0326
     49 H49           1.489522    9.651773    2.007784 H        1 SUBUNIT    0.0326
     50 H50           0.192165   10.995670    3.461705 H        1 SUBUNIT    0.0511
     51 H52           5.036440    8.990877    3.901211 H        1 SUBUNIT    0.0716
     52 H53           5.475349    7.300675    3.399999 H        1 SUBUNIT    0.0716
     53 H54           5.598153    9.550081    1.462046 H        1 SUBUNIT    0.0353
     54 H55           6.846330    9.264649    2.476047 H        1 SUBUNIT    0.0353
     55 H56           5.228270    6.336729    1.577404 H        1 SUBUNIT    0.0626
     56 H57           6.071154    4.665705    0.068813 H        1 SUBUNIT    0.0623
     57 H58           7.947346    5.167191   -1.349770 H        1 SUBUNIT    0.0623
     58 H59           8.976866    7.340405   -1.265391 H        1 SUBUNIT    0.0623
     59 H60           8.135618    9.012803    0.242642 H        1 SUBUNIT    0.0626
     60 H61           0.527403   11.296632    5.864847 H        1 SUBUNIT    0.0335
     61 H62           1.907754   10.115502    5.856375 H        1 SUBUNIT    0.0335
     62 H63           0.888026   13.497847    4.649656 H        1 SUBUNIT    0.0626
     63 H64           2.425552   15.299939    4.235361 H        1 SUBUNIT    0.0623
     64 H65           4.797162   14.906988    4.343934 H        1 SUBUNIT    0.0623
     65 H66           5.632233   12.712339    4.869713 H        1 SUBUNIT    0.0623
     66 H67           4.096438   10.909201    5.284776 H        1 SUBUNIT    0.0626
@<TRIPOS>BOND
     1    1    2 2
     2    2    3 1
     3    2   11 1
     4    3    4 ar
     5    3    8 ar
     6    4    5 ar
     7    4   34 1
     8    5    6 ar
     9    5    9 1
    10    6    7 ar
    11    6   35 1
    12    7    8 ar
    13    7   10 1
    14    8   36 1
    15    9   37 1
    16    9   38 1
    17    9   39 1
    18   10   40 1
    19   10   41 1
    20   10   42 1
    21   11   12 1
    22   11   16 1
    23   12   13 1
    24   12   43 1
    25   12   44 1
    26   13   14 1
    27   13   45 1
    28   13   46 1
    29   14   15 1
    30   14   17 1
    31   14   47 1
    32   15   16 1
    33   15   48 1
    34   15   49 1
    35   16   27 1
    36   16   50 1
    37   17   18 1
    38   17   26 1
    39   18   19 1
    40   18   51 1
    41   18   52 1
    42   19   20 1
    43   19   53 1
    44   19   54 1
    45   20   21 ar
    46   20   25 ar
    47   21   22 ar
    48   21   55 1
    49   22   23 ar
    50   22   56 1
    51   23   24 ar
    52   23   57 1
    53   24   25 ar
    54   24   58 1
    55   25   59 1
    56   27   28 1
    57   27   60 1
    58   27   61 1
    59   28   29 ar
    60   28   33 ar
    61   29   30 ar
    62   29   62 1
    63   30   31 ar
    64   30   63 1
    65   31   32 ar
    66   31   64 1
    67   32   33 ar
    68   32   65 1
    69   33   66 1
@<SCITEGIC>ATOM_PROPERTY
Formal Charge
SciTegic.value.StringValue
1 0
2 0
3 0
4 0
5 0
6 0
7 0
8 0
9 0
10 0
11 0
12 0
13 0
14 0
15 0
16 0
17 0
18 0
19 0
20 0
21 0
22 0
23 0
24 0
25 0
26 0
27 0
28 0
29 0
30 0
31 0
32 0
33 0
34 0
35 0
36 0
37 0
38 0
39 0
40 0
41 0
42 0
43 0
44 0
45 0
46 0
47 0
48 0
49 0
50 0
51 0
52 0
53 0
54 0
55 0
56 0
57 0
58 0
59 0
60 0
61 0
62 0
63 0
64 0
65 0
66 0

@<SCITEGIC>ATOM_PROPERTY
pdb_tempFactor
SciTegic.value.DoubleValue
1 0.00
2 0.00
3 0.00
4 0.00
5 0.00
6 0.00
7 0.00
8 0.00
9 0.00
10 0.00
11 0.00
12 0.00
13 0.00
14 0.00
15 0.00
16 0.00
17 0.00
18 0.00
19 0.00
20 0.00
21 0.00
22 0.00
23 0.00
24 0.00
25 0.00
26 0.00
27 0.00
28 0.00
29 0.00
30 0.00
31 0.00
32 0.00
33 0.00
34 0.00
35 0.00
36 0.00
37 0.00
38 0.00
39 0.00
40 0.00
41 0.00
42 0.00
43 0.00
44 0.00
45 0.00
46 0.00
47 0.00
48 0.00
49 0.00
50 0.00
51 0.00
52 0.00
53 0.00
54 0.00
55 0.00
56 0.00
57 0.00
58 0.00
59 0.00
60 0.00
61 0.00
62 0.00
63 0.00
64 0.00
65 0.00
66 0.00

@<SCITEGIC>ATOM_PROPERTY
pdb_occupancy
SciTegic.value.DoubleValue
1 1.00
2 1.00
3 1.00
4 1.00
5 1.00
6 1.00
7 1.00
8 1.00
9 1.00
10 1.00
11 1.00
12 1.00
13 1.00
14 1.00
15 1.00
16 1.00
17 1.00
18 1.00
19 1.00
20 1.00
21 1.00
22 1.00
23 1.00
24 1.00
25 1.00
26 1.00
27 1.00
28 1.00
29 1.00
30 1.00
31 1.00
32 1.00
33 1.00
34 1.00
35 1.00
36 1.00
37 1.00
38 1.00
39 1.00
40 1.00
41 1.00
42 1.00
43 1.00
44 1.00
45 1.00
46 1.00
47 1.00
48 1.00
49 1.00
50 1.00
51 1.00
52 1.00
53 1.00
54 1.00
55 1.00
56 1.00
57 1.00
58 1.00
59 1.00
60 1.00
61 1.00
62 1.00
63 1.00
64 1.00
65 1.00
66 1.00

#	Copyright: drugdesign.org
#	Creation time:	2024-01-04T21:47:00Z

@<TRIPOS>MOLECULE
Molecule
    5     4     0 0 0
SMALL
USER_CHARGES


@<TRIPOS>ATOM
      1 C1            0.192325    0.855228    0.191133 C.3      1 SUBUNIT    0.0000
      2 C2            0.201994    2.302331    0.665758 C.3      1 SUBUNIT    0.0000
      3 C4            0.211663    3.749434    1.140384 C.3      1 SUBUNIT    0.0000
      4 C6           -0.519151    2.961824    1.229527 C.3      1 SUBUNIT    0.0000
      5 C8            0.933729    3.227760    0.621818 C.3      1 SUBUNIT    0.0000
@<TRIPOS>BOND
     1    1    2 1
     2    2    3 1
     3    3    4 1
     4    3    5 1
@<SCITEGIC>ATOM_PROPERTY
Formal Charge
SciTegic.value.StringValue
1 0
2 0
3 0
4 0
5 0

@<SCITEGIC>ATOM_PROPERTY
pdb_tempFactor
SciTegic.value.DoubleValue
1 0.00
2 0.00
3 0.00
4 0.00
5 0.00

@<SCITEGIC>ATOM_PROPERTY
pdb_occupancy
SciTegic.value.DoubleValue
1 1.00
2 1.00
3 1.00
4 1.00
5 1.00

