#	copyright 2023 drugdesign.org
#	Creation time:	2024-01-10T22:36:35Z

@<SCITEGIC>ROOT_PROPERTY
Ligand:MaximumNumberOfAtoms
SciTegic.value.IntegerValue
100

@<SCITEGIC>ROOT_PROPERTY
Ligand:HydrogenAtomsCountTowardsMaximum
SciTegic.value.BooleanValue
FALSE

@<TRIPOS>MOLECULE
peptide-1
   21    21     0 0 0
SMALL
USER_CHARGES


@<TRIPOS>ATOM
      1 C1            0.464784    4.326215    0.370467 C.3      1 SUBUNIT    0.0174
      2 C2            1.426521    3.208007    0.777442 C.3      1 SUBUNIT    0.0299
      3 C3            2.559408    4.108469    1.201375 C.3      1 SUBUNIT    0.1411
      4 N4            2.786893    4.948344    0.040054 N.3      1 SUBUNIT   -0.1831
      5 C5            1.403672    5.331061   -0.379514 C.3      1 SUBUNIT    0.0815
      6 C6            3.778062    3.376246    1.687516 C.2      1 SUBUNIT    0.2294
      7 O7            3.659006    2.335526    2.310951 O.2      1 SUBUNIT   -0.2759
      8 N8            5.037540    3.959814    1.451067 N.am     1 SUBUNIT   -0.1521
      9 C9            6.215885    3.520095    2.151623 C.3      1 SUBUNIT    0.1600
     10 C10           7.437059    4.442295    1.827214 C.3      1 SUBUNIT    0.0352
     11 C11           6.637564    2.155532    1.732500 C.2      1 SUBUNIT    0.2326
     12 C12           8.805059    3.969824    2.404226 C.3      1 SUBUNIT   -0.0151
     13 C13           9.895613    4.933112    1.900907 C.3      1 SUBUNIT    0.0072
     14 C14           8.830451    3.983920    3.948328 C.3      1 SUBUNIT    0.0072
     15 O15           7.006613    1.949026    0.558675 O.2      1 SUBUNIT   -0.2755
     16 N16           6.681331    1.129048    2.656511 N.am     1 SUBUNIT   -0.1549
     17 C17           7.345588   -0.089975    2.337616 C.3      1 SUBUNIT    0.2014
     18 C18           6.668039   -1.222767    3.028467 C.2      1 SUBUNIT    0.2264
     19 O19           5.579095   -1.040780    3.587271 O.2      1 SUBUNIT   -0.2761
     20 N20           7.259505   -2.486796    3.043478 N.am     1 SUBUNIT   -0.0367
     21 H41           5.115382    4.697454    0.780376 H        1 SUBUNIT    0.0000
@<TRIPOS>BOND
     1    1    2 1
     2    3    4 1
     3    4    5 1
     4    5    1 1
     5    2    3 1
     6    3    6 1
     7    6    7 2
     8    6    8 1
     9    8    9 1
    10    9   10 1
    11    9   11 1
    12   10   12 1
    13   12   13 1
    14   12   14 1
    15   11   15 2
    16   11   16 1
    17   16   17 1
    18   18   19 2
    19   18   20 1
    20   18   17 1
    21    8   21 1
@<SCITEGIC>ATOM_PROPERTY
Formal Charge
SciTegic.value.StringValue
1 0
2 0
3 0
4 0
5 0
6 0
7 0
8 0
9 0
10 0
11 0
12 0
13 0
14 0
15 0
16 0
17 0
18 0
19 0
20 0
21 0

@<SCITEGIC>ATOM_PROPERTY
pdb_tempFactor
SciTegic.value.DoubleValue
1 0.00
2 0.00
3 0.00
4 0.00
5 0.00
6 0.00
7 0.00
8 0.00
9 0.00
10 0.00
11 0.00
12 0.00
13 0.00
14 0.00
15 0.00
16 0.00
17 0.00
18 0.00
19 0.00
20 0.00
21 0.00

@<SCITEGIC>ATOM_PROPERTY
pdb_occupancy
SciTegic.value.DoubleValue
1 1.00
2 1.00
3 1.00
4 1.00
5 1.00
6 1.00
7 1.00
8 1.00
9 1.00
10 1.00
11 1.00
12 1.00
13 1.00
14 1.00
15 1.00
16 1.00
17 1.00
18 1.00
19 1.00
20 1.00
21 1.00

#	copyright 2023 drugdesign.org
#	Creation time:	2024-01-10T22:36:35Z

@<SCITEGIC>ROOT_PROPERTY
Ligand:MaximumNumberOfAtoms
SciTegic.value.IntegerValue
100

@<SCITEGIC>ROOT_PROPERTY
Ligand:HydrogenAtomsCountTowardsMaximum
SciTegic.value.BooleanValue
FALSE

@<TRIPOS>MOLECULE
molecule-4
   21    23     0 0 0
SMALL
USER_CHARGES


@<TRIPOS>ATOM
      1 C1            6.963165   -0.716060    2.336166 C.2      1 SUBUNIT    0.2266
      2 O2            5.786008   -0.360910    2.216552 O.2      1 SUBUNIT   -0.2761
      3 N3            7.281758   -2.073435    2.335560 N.am     1 SUBUNIT   -0.0367
      4 C4            0.318727    3.309406    0.061777 C.3      1 SUBUNIT    0.0217
      5 C5            1.558419    2.397366    0.140308 C.3      1 SUBUNIT    0.0342
      6 C6            2.318239    3.187664    1.192213 C.3      1 SUBUNIT    0.1631
      7 N7            2.228990    4.483190    0.708594 N.am     1 SUBUNIT   -0.2886
      8 C8            0.983985    4.735141   -0.025760 C.3      1 SUBUNIT    0.1090
      9 C9            3.711949    2.802624    1.410006 C.2      1 SUBUNIT    0.2361
     10 O10           4.076840    1.686648    1.034385 O.2      1 SUBUNIT   -0.2753
     11 N11           4.603431    3.741763    2.033616 N.am     1 SUBUNIT   -0.2791
     12 C12           5.896494    3.343653    2.571401 C.3      1 SUBUNIT    0.1652
     13 C13           7.092448    3.731072    1.676145 C.3      1 SUBUNIT    0.0518
     14 C14           6.175945    1.904238    2.721365 C.2      1 SUBUNIT    0.2355
     15 C15           8.251008    2.874504    2.290694 C.3      1 SUBUNIT    0.1111
     16 O16           5.341437    1.038917    3.000105 O.2      1 SUBUNIT   -0.2753
     17 N17           7.498940    1.655606    2.535418 N.am     1 SUBUNIT   -0.2910
     18 C18           3.076180    5.507564    1.195799 C.2      1 SUBUNIT    0.2325
     19 C19           4.251074    5.158913    2.102170 C.3      1 SUBUNIT    0.2062
     20 O20           2.862133    6.682970    0.885305 O.2      1 SUBUNIT   -0.2756
     21 C21           8.025980    0.323996    2.494972 C.3      1 SUBUNIT    0.2048
@<TRIPOS>BOND
     1    1    2 2
     2    1    3 1
     3    4    5 1
     4    6    7 1
     5    7    8 1
     6    8    4 1
     7    5    6 1
     8    6    9 1
     9    9   10 2
    10    9   11 1
    11   11   12 1
    12   12   13 1
    13   12   14 1
    14   13   15 1
    15   14   16 2
    16   14   17 1
    17   17   15 1
    18    7   18 1
    19   11   19 1
    20   18   19 1
    21   18   20 2
    22   17   21 1
    23    1   21 1
@<SCITEGIC>ATOM_PROPERTY
Formal Charge
SciTegic.value.StringValue
1 0
2 0
3 0
4 0
5 0
6 0
7 0
8 0
9 0
10 0
11 0
12 0
13 0
14 0
15 0
16 0
17 0
18 0
19 0
20 0
21 0

@<SCITEGIC>ATOM_PROPERTY
pdb_tempFactor
SciTegic.value.DoubleValue
1 0.00
2 0.00
3 0.00
4 0.00
5 0.00
6 0.00
7 0.00
8 0.00
9 0.00
10 0.00
11 0.00
12 0.00
13 0.00
14 0.00
15 0.00
16 0.00
17 0.00
18 0.00
19 0.00
20 0.00
21 0.00

@<SCITEGIC>ATOM_PROPERTY
pdb_occupancy
SciTegic.value.DoubleValue
1 1.00
2 1.00
3 1.00
4 1.00
5 1.00
6 1.00
7 1.00
8 1.00
9 1.00
10 1.00
11 1.00
12 1.00
13 1.00
14 1.00
15 1.00
16 1.00
17 1.00
18 1.00
19 1.00
20 1.00
21 1.00

#	copyright 2023 drugdesign.org
#	Creation time:	2024-01-10T22:36:35Z

@<SCITEGIC>ROOT_PROPERTY
Ligand:MaximumNumberOfAtoms
SciTegic.value.IntegerValue
100

@<SCITEGIC>ROOT_PROPERTY
Ligand:HydrogenAtomsCountTowardsMaximum
SciTegic.value.BooleanValue
FALSE

@<TRIPOS>MOLECULE
molecule-3
   21    23     0 0 0
SMALL
USER_CHARGES


@<TRIPOS>ATOM
      1 C1            7.496298   -0.893172    2.158387 C.2      1 SUBUNIT    0.2266
      2 O2            6.349440   -0.870286    1.704955 O.2      1 SUBUNIT   -0.2761
      3 N3            7.995879   -2.074672    2.712341 N.am     1 SUBUNIT   -0.0367
      4 C4            8.388104    0.320574    2.083314 C.3      1 SUBUNIT    0.2048
      5 C5            0.895309    5.184876    0.384539 C.3      1 SUBUNIT    0.0178
      6 C6            1.705500    3.928566   -0.017092 C.3      1 SUBUNIT    0.0303
      7 C7            2.424043    3.815287    1.313585 C.3      1 SUBUNIT    0.1458
      8 N8            3.011967    5.120323    1.534341 N.3      1 SUBUNIT   -0.2713
      9 C9            2.013296    6.113786    1.048526 C.3      1 SUBUNIT    0.0873
     10 C10           3.646312    2.959211    1.387256 C.2      1 SUBUNIT    0.2338
     11 O11           3.618480    1.741810    1.569737 O.2      1 SUBUNIT   -0.2756
     12 N12           4.820109    3.772784    1.257630 N.am     1 SUBUNIT   -0.2704
     13 C13           6.218573    3.313503    1.450989 C.3      1 SUBUNIT    0.1665
     14 C14           7.054811    3.147663    0.163276 C.3      1 SUBUNIT    0.0518
     15 C15           6.469527    1.974040    2.044343 C.2      1 SUBUNIT    0.2355
     16 C16           8.331380    2.436583    0.696165 C.3      1 SUBUNIT    0.1111
     17 O17           5.734812    1.402873    2.855308 O.2      1 SUBUNIT   -0.2753
     18 N18           7.717561    1.513001    1.618462 N.am     1 SUBUNIT   -0.2910
     19 C19           4.416033    5.164234    0.906652 C.3      1 SUBUNIT    0.0853
     20 C20           4.497782    5.344202   -0.655971 C.3      1 SUBUNIT    0.0499
     21 C21           5.265525    6.295552    1.522278 C.3      1 SUBUNIT    0.0499
@<TRIPOS>BOND
     1    1    2 2
     2    1    3 1
     3    1    4 1
     4    5    6 1
     5    7    8 1
     6    8    9 1
     7    9    5 1
     8    6    7 1
     9    7   10 1
    10   10   11 2
    11   10   12 1
    12   12   13 1
    13   13   14 1
    14   13   15 1
    15   14   16 1
    16   15   17 2
    17   15   18 1
    18   18   16 1
    19    8   19 1
    20   12   19 1
    21   19   20 1
    22   19   21 1
    23    4   18 1
@<SCITEGIC>ATOM_PROPERTY
Formal Charge
SciTegic.value.StringValue
1 0
2 0
3 0
4 0
5 0
6 0
7 0
8 0
9 0
10 0
11 0
12 0
13 0
14 0
15 0
16 0
17 0
18 0
19 0
20 0
21 0

@<SCITEGIC>ATOM_PROPERTY
pdb_tempFactor
SciTegic.value.DoubleValue
1 0.00
2 0.00
3 0.00
4 0.00
5 0.00
6 0.00
7 0.00
8 0.00
9 0.00
10 0.00
11 0.00
12 0.00
13 0.00
14 0.00
15 0.00
16 0.00
17 0.00
18 0.00
19 0.00
20 0.00
21 0.00

@<SCITEGIC>ATOM_PROPERTY
pdb_occupancy
SciTegic.value.DoubleValue
1 1.00
2 1.00
3 1.00
4 1.00
5 1.00
6 1.00
7 1.00
8 1.00
9 1.00
10 1.00
11 1.00
12 1.00
13 1.00
14 1.00
15 1.00
16 1.00
17 1.00
18 1.00
19 1.00
20 1.00
21 1.00

