#	copyright 2023 drugdesign.org
#	Creation time:	2024-01-10T22:36:41Z

@<SCITEGIC>ROOT_PROPERTY
Ligand:MaximumNumberOfAtoms
SciTegic.value.IntegerValue
100

@<SCITEGIC>ROOT_PROPERTY
Ligand:HydrogenAtomsCountTowardsMaximum
SciTegic.value.BooleanValue
FALSE

@<TRIPOS>MOLECULE
mol-1
   23    24     0 0 0
SMALL
USER_CHARGES


@<TRIPOS>ATOM
      1 C1           26.460524  -12.768614   -0.027341 C.2      1 SUBUNIT    0.0485
      2 C2           26.446028  -14.098107   -0.061030 C.2      1 SUBUNIT    0.0210
      3 C3           27.701109  -14.843052   -0.051907 C.2      1 SUBUNIT    0.0351
      4 C4           28.866201  -14.199648   -0.008586 C.2      1 SUBUNIT    0.0865
      5 C5           28.892515  -12.712105    0.031503 C.2      1 SUBUNIT    0.0981
      6 C6           27.726517  -12.039816    0.020250 C.2      1 SUBUNIT    0.1007
      7 C7           30.201431  -11.983663    0.095724 C.2      1 SUBUNIT    0.2483
      8 N8           31.414206  -12.670650    0.094729 N.am     1 SUBUNIT   -0.1599
      9 O9           30.222403  -10.748801    0.170831 O.2      1 SUBUNIT   -0.2717
     10 Br10         24.824314  -11.801193   -0.036125 Br       1 SUBUNIT   -0.0479
     11 O11          27.676060  -10.639451    0.054864 O.3      1 SUBUNIT   -0.3588
     12 C12          32.615417  -11.951982    0.403551 C.3      1 SUBUNIT    0.1236
     13 C13          33.848423  -12.710389   -0.110294 C.3      1 SUBUNIT    0.0735
     14 C14          33.578106  -14.179257   -0.366229 C.3      1 SUBUNIT    0.0219
     15 C15          35.013813  -14.676273   -0.646166 C.3      1 SUBUNIT    0.0172
     16 C16          35.898243  -13.671792    0.170080 C.3      1 SUBUNIT    0.0847
     17 N17          34.906460  -12.833192    0.876288 N.3      1 SUBUNIT   -0.2991
     18 C18          35.474289  -11.548480    1.316754 C.3      1 SUBUNIT    0.0812
     19 C19          36.604492  -11.805994    2.337254 C.3      1 SUBUNIT    0.0206
     20 H20          28.596054  -10.270946    0.083407 H        1 SUBUNIT    0.2183
     21 O21          30.051449  -14.941313    0.002550 O.3      1 SUBUNIT   -0.3600
     22 H22          29.825203  -15.966213   -0.027314 H        1 SUBUNIT    0.2183
     23 H46          31.445749  -13.647336   -0.117611 H        1 SUBUNIT    0.0000
@<TRIPOS>BOND
     1    1    2 2
     2    2    3 1
     3    3    4 2
     4    4    5 1
     5    5    6 2
     6    6    1 1
     7    5    7 1
     8    7    8 1
     9    7    9 2
    10    1   10 1
    11    6   11 1
    12    8   12 1
    13   13   14 1
    14   14   15 1
    15   15   16 1
    16   16   17 1
    17   17   13 1
    18   17   18 1
    19   18   19 1
    20   13   12 1
    21   11   20 1
    22    4   21 1
    23   21   22 1
    24    8   23 1
@<SCITEGIC>ATOM_PROPERTY
Formal Charge
SciTegic.value.StringValue
1 0
2 0
3 0
4 0
5 0
6 0
7 0
8 0
9 0
10 0
11 0
12 0
13 0
14 0
15 0
16 0
17 0
18 0
19 0
20 0
21 0
22 0
23 0

@<SCITEGIC>ATOM_PROPERTY
pdb_tempFactor
SciTegic.value.DoubleValue
1 0.00
2 0.00
3 0.00
4 0.00
5 0.00
6 0.00
7 0.00
8 0.00
9 0.00
10 0.00
11 0.00
12 0.00
13 0.00
14 0.00
15 0.00
16 0.00
17 0.00
18 0.00
19 0.00
20 0.00
21 0.00
22 0.00
23 0.00

@<SCITEGIC>ATOM_PROPERTY
pdb_occupancy
SciTegic.value.DoubleValue
1 1.00
2 1.00
3 1.00
4 1.00
5 1.00
6 1.00
7 1.00
8 1.00
9 1.00
10 1.00
11 1.00
12 1.00
13 1.00
14 1.00
15 1.00
16 1.00
17 1.00
18 1.00
19 1.00
20 1.00
21 1.00
22 1.00
23 1.00

#	copyright 2023 drugdesign.org
#	Creation time:	2024-01-10T22:36:41Z

@<SCITEGIC>ROOT_PROPERTY
Ligand:MaximumNumberOfAtoms
SciTegic.value.IntegerValue
100

@<SCITEGIC>ROOT_PROPERTY
Ligand:HydrogenAtomsCountTowardsMaximum
SciTegic.value.BooleanValue
FALSE

@<TRIPOS>MOLECULE
mol-2
   19    21     0 0 0
SMALL
USER_CHARGES


@<TRIPOS>ATOM
      1 C1           26.750135  -13.304088    0.078023 C.2      1 SUBUNIT    0.0414
      2 C2           27.076250  -14.604664    0.123927 C.2      1 SUBUNIT    0.0207
      3 C3           28.492092  -15.014767    0.098198 C.2      1 SUBUNIT    0.0075
      4 C4           29.406136  -14.054970    0.025218 C.2      1 SUBUNIT   -0.0180
      5 C5           29.055868  -12.704980   -0.030497 C.2      1 SUBUNIT    0.0435
      6 C6           27.805904  -12.279917   -0.005478 C.2      1 SUBUNIT    0.0341
      7 C7           30.233850  -11.945898   -0.125216 C.2      1 SUBUNIT    0.2462
      8 N8           31.326729  -12.810740   -0.155848 N.am     1 SUBUNIT   -0.2918
      9 O9           30.288317  -10.711060   -0.190588 O.2      1 SUBUNIT   -0.2717
     10 Cl10         25.093843  -12.829915    0.111473 Cl       1 SUBUNIT   -0.0843
     11 C11          32.689308  -12.316507   -0.359255 C.3      1 SUBUNIT    0.1276
     12 C12          33.867035  -13.197115    0.177448 C.3      1 SUBUNIT    0.0738
     13 C13          34.491581  -14.186605   -0.818384 C.3      1 SUBUNIT    0.0219
     14 C14          35.711380  -14.654837   -0.015095 C.3      1 SUBUNIT    0.0172
     15 C15          36.055347  -13.392520    0.835264 C.3      1 SUBUNIT    0.0847
     16 N16          35.051895  -12.398531    0.394459 N.3      1 SUBUNIT   -0.2991
     17 C17          34.885376  -11.295572    1.350607 C.3      1 SUBUNIT    0.0812
     18 C18          36.208244  -10.506549    1.450944 C.3      1 SUBUNIT    0.0206
     19 C19          30.898880  -14.241468   -0.011780 C.3      1 SUBUNIT    0.1445
@<TRIPOS>BOND
     1    1    2 2
     2    2    3 1
     3    3    4 2
     4    4    5 1
     5    5    6 2
     6    6    1 1
     7    5    7 1
     8    7    8 1
     9    7    9 2
    10    1   10 1
    11    8   11 1
    12   12   13 1
    13   13   14 1
    14   14   15 1
    15   15   16 1
    16   16   12 1
    17   16   17 1
    18   17   18 1
    19   12   11 1
    20    4   19 1
    21   19    8 1
@<SCITEGIC>ATOM_PROPERTY
Formal Charge
SciTegic.value.StringValue
1 0
2 0
3 0
4 0
5 0
6 0
7 0
8 0
9 0
10 0
11 0
12 0
13 0
14 0
15 0
16 0
17 0
18 0
19 0

@<SCITEGIC>ATOM_PROPERTY
pdb_tempFactor
SciTegic.value.DoubleValue
1 0.00
2 0.00
3 0.00
4 0.00
5 0.00
6 0.00
7 0.00
8 0.00
9 0.00
10 0.00
11 0.00
12 0.00
13 0.00
14 0.00
15 0.00
16 0.00
17 0.00
18 0.00
19 0.00

@<SCITEGIC>ATOM_PROPERTY
pdb_occupancy
SciTegic.value.DoubleValue
1 1.00
2 1.00
3 1.00
4 1.00
5 1.00
6 1.00
7 1.00
8 1.00
9 1.00
10 1.00
11 1.00
12 1.00
13 1.00
14 1.00
15 1.00
16 1.00
17 1.00
18 1.00
19 1.00

