#	copyright 2023 drugdesign.org
#	Creation time:	2024-01-10T22:37:00Z

@<SCITEGIC>ROOT_PROPERTY
Ligand:MaximumNumberOfAtoms
SciTegic.value.IntegerValue
100

@<SCITEGIC>ROOT_PROPERTY
Ligand:HydrogenAtomsCountTowardsMaximum
SciTegic.value.BooleanValue
FALSE

@<TRIPOS>MOLECULE
Molecule
   30    32     0 0 0
SMALL
USER_CHARGES


@<TRIPOS>ATOM
      1 C1           10.165912  -14.646632   -0.010412 C.2      1 SUBUNIT    0.0221
      2 C2           10.282891  -15.969120   -0.021884 C.2      1 SUBUNIT    0.1129
      3 N3           11.546402  -16.572792   -0.020609 N.2      1 SUBUNIT   -0.2429
      4 C4           12.625321  -15.891316   -0.007753 C.2      1 SUBUNIT    0.1272
      5 C5           12.561363  -14.397108    0.000597 C.2      1 SUBUNIT    0.0699
      6 C6           11.358621  -13.826979   -0.000299 C.2      1 SUBUNIT    0.0285
      7 N7           13.745090  -13.592984    0.004710 N.am     1 SUBUNIT   -0.1270
      8 C8           13.719624  -12.142857    0.015051 C.2      1 SUBUNIT    0.2157
      9 C9           15.005482  -11.360843    0.015457 C.3      1 SUBUNIT    0.0942
     10 O10          12.658130  -11.506091    0.023061 O.2      1 SUBUNIT   -0.2773
     11 CF3          14.711162   -9.856288    0.014949 C.3      1 SUBUNIT    0.0139
     12 N12          13.835752  -16.608919   -0.002931 N.pl3    1 SUBUNIT   -0.1369
     13 C13          13.724385  -18.066910   -0.014847 C.3      1 SUBUNIT    0.1231
     14 C14          15.056858  -18.764847   -0.008102 C.2      1 SUBUNIT   -0.0337
     15 C15          15.119989  -20.098145   -0.023237 C.2      1 SUBUNIT    0.0055
     16 C16          16.429747  -20.781818   -0.019054 C.2      1 SUBUNIT    0.0089
     17 C17          17.559980  -20.071051   -0.001768 C.2      1 SUBUNIT   -0.0176
     18 C18          17.445877  -18.617559    0.016592 C.2      1 SUBUNIT    0.0089
     19 C19          16.272415  -17.996778    0.013817 C.2      1 SUBUNIT    0.0055
     20 C20          18.896910  -20.818226    0.002541 C.2      1 SUBUNIT   -0.0050
     21 C21          19.794317  -20.369013    0.884494 C.2      1 SUBUNIT    0.0094
     22 C22          21.120052  -20.972343    1.015009 C.2      1 SUBUNIT    0.0007
     23 C23          21.471169  -21.997202    0.248222 C.2      1 SUBUNIT    0.0009
     24 C24          20.538486  -22.534006   -0.731551 C.2      1 SUBUNIT    0.0149
     25 C25          19.315973  -22.024754   -0.894521 C.2      1 SUBUNIT    0.0548
     26 F55          15.994084   -9.098515    0.015360 F        1 SUBUNIT    0.0000
     27 F57          13.925967   -9.502700    1.230901 F        1 SUBUNIT    0.0000
     28 F59          13.927100   -9.503293   -1.201906 F        1 SUBUNIT    0.0000
     29 H61          14.722839  -16.147446    0.008037 H        1 SUBUNIT    0.0000
     30 H63          14.632885  -14.053201    0.000238 H        1 SUBUNIT    0.0000
@<TRIPOS>BOND
     1    1    2 2
     2    2    3 1
     3    3    4 2
     4    4    5 1
     5    5    6 2
     6    6    1 1
     7    5    7 1
     8    7    8 1
     9    8    9 1
    10    8   10 2
    11    9   11 1
    12    4   12 1
    13   12   13 1
    14   13   14 1
    15   14   15 2
    16   15   16 1
    17   16   17 2
    18   17   18 1
    19   18   19 2
    20   19   14 1
    21   17   20 1
    22   20   21 2
    23   21   22 1
    24   22   23 2
    25   23   24 1
    26   24   25 2
    27   25   20 1
    28   11   26 1
    29   11   27 1
    30   11   28 1
    31   12   29 1
    32    7   30 1
@<SCITEGIC>ATOM_PROPERTY
Formal Charge
SciTegic.value.StringValue
1 0
2 0
3 0
4 0
5 0
6 0
7 0
8 0
9 0
10 0
11 0
12 0
13 0
14 0
15 0
16 0
17 0
18 0
19 0
20 0
21 0
22 0
23 0
24 0
25 0
26 0
27 0
28 0
29 0
30 0

@<SCITEGIC>ATOM_PROPERTY
pdb_tempFactor
SciTegic.value.DoubleValue
1 0.00
2 0.00
3 0.00
4 0.00
5 0.00
6 0.00
7 0.00
8 0.00
9 0.00
10 0.00
11 0.00
12 0.00
13 0.00
14 0.00
15 0.00
16 0.00
17 0.00
18 0.00
19 0.00
20 0.00
21 0.00
22 0.00
23 0.00
24 0.00
25 0.00
26 0.00
27 0.00
28 0.00
29 0.00
30 0.00

@<SCITEGIC>ATOM_PROPERTY
pdb_occupancy
SciTegic.value.DoubleValue
1 1.00
2 1.00
3 1.00
4 1.00
5 1.00
6 1.00
7 1.00
8 1.00
9 1.00
10 1.00
11 1.00
12 1.00
13 1.00
14 1.00
15 1.00
16 1.00
17 1.00
18 1.00
19 1.00
20 1.00
21 1.00
22 1.00
23 1.00
24 1.00
25 1.00
26 1.00
27 1.00
28 1.00
29 1.00
30 1.00

#	copyright 2023 drugdesign.org
#	Creation time:	2024-01-10T22:37:01Z

@<SCITEGIC>ROOT_PROPERTY
Ligand:MaximumNumberOfAtoms
SciTegic.value.IntegerValue
100

@<SCITEGIC>ROOT_PROPERTY
Ligand:HydrogenAtomsCountTowardsMaximum
SciTegic.value.BooleanValue
FALSE

@<TRIPOS>MOLECULE
Molecule
   29    31     0 0 0
SMALL
USER_CHARGES


@<TRIPOS>ATOM
      1 C1           12.572396  -14.705612    0.262294 C.3      1 SUBUNIT    0.1104
      2 C2           11.361004  -14.179953    1.061436 C.3      1 SUBUNIT    0.0386
      3 C3           11.319810  -14.188895   -0.477383 C.3      1 SUBUNIT    0.0386
      4 O4           11.553261  -16.838436    0.313270 O.2      1 SUBUNIT   -0.2752
      5 C5           12.621233  -16.219255    0.278862 C.2      1 SUBUNIT    0.2356
      6 N6           13.795581  -13.822517    0.240434 N.am     1 SUBUNIT   -0.1507
      7 C7           13.740309  -12.343501    0.223878 C.2      1 SUBUNIT    0.2122
      8 C8           15.013866  -11.541792    0.208007 C.3      1 SUBUNIT    0.0938
      9 O9           12.668618  -11.724923    0.223182 O.2      1 SUBUNIT   -0.2777
     10 CF3          14.696518  -10.041263    0.252727 C.3      1 SUBUNIT    0.0139
     11 N11          13.815059  -16.956886    0.255088 N.am     1 SUBUNIT   -0.1596
     12 C12          13.691480  -18.409178    0.257035 C.3      1 SUBUNIT    0.1399
     13 C13          15.027863  -19.095858    0.261053 C.2      1 SUBUNIT   -0.0308
     14 C14          15.106193  -20.427996    0.253093 C.2      1 SUBUNIT    0.0058
     15 C15          16.425173  -21.093605    0.255322 C.2      1 SUBUNIT    0.0089
     16 C16          17.546104  -20.368744    0.264400 C.2      1 SUBUNIT   -0.0176
     17 C17          17.415403  -18.917572    0.275817 C.2      1 SUBUNIT    0.0089
     18 C18          16.234331  -18.312599    0.273589 C.2      1 SUBUNIT    0.0058
     19 C19          18.890116  -21.099062    0.264530 C.2      1 SUBUNIT   -0.0050
     20 C20          19.784004  -20.639055    1.144706 C.2      1 SUBUNIT    0.0094
     21 C21          21.116617  -21.227043    1.272171 C.2      1 SUBUNIT    0.0007
     22 C22          21.477392  -22.248102    0.504704 C.2      1 SUBUNIT    0.0009
     23 C23          20.548756  -22.795582   -0.473087 C.2      1 SUBUNIT    0.0149
     24 C24          19.320330  -22.300318   -0.633552 C.2      1 SUBUNIT    0.0548
     25 F53          15.967257   -9.263415    0.236362 F        1 SUBUNIT    0.0000
     26 F55          13.940375   -9.729737    1.498245 F        1 SUBUNIT    0.0000
     27 F57          13.873386   -9.671444   -0.932936 F        1 SUBUNIT    0.0000
     28 H59          14.694230  -14.261171    0.236933 H        1 SUBUNIT    0.0000
     29 H61          14.708141  -16.507334    0.237639 H        1 SUBUNIT    0.0000
@<TRIPOS>BOND
     1    1    2 1
     2    1    3 1
     3    4    5 2
     4    5    1 1
     5    1    6 1
     6    6    7 1
     7    7    8 1
     8    7    9 2
     9    8   10 1
    10    5   11 1
    11   11   12 1
    12   12   13 1
    13   13   14 2
    14   14   15 1
    15   15   16 2
    16   16   17 1
    17   17   18 2
    18   18   13 1
    19   16   19 1
    20   19   20 2
    21   20   21 1
    22   21   22 2
    23   22   23 1
    24   23   24 2
    25   24   19 1
    26    2    3 1
    27   10   25 1
    28   10   26 1
    29   10   27 1
    30    6   28 1
    31   11   29 1
@<SCITEGIC>ATOM_PROPERTY
Formal Charge
SciTegic.value.StringValue
1 0
2 0
3 0
4 0
5 0
6 0
7 0
8 0
9 0
10 0
11 0
12 0
13 0
14 0
15 0
16 0
17 0
18 0
19 0
20 0
21 0
22 0
23 0
24 0
25 0
26 0
27 0
28 0
29 0

@<SCITEGIC>ATOM_PROPERTY
pdb_tempFactor
SciTegic.value.DoubleValue
1 0.00
2 0.00
3 0.00
4 0.00
5 0.00
6 0.00
7 0.00
8 0.00
9 0.00
10 0.00
11 0.00
12 0.00
13 0.00
14 0.00
15 0.00
16 0.00
17 0.00
18 0.00
19 0.00
20 0.00
21 0.00
22 0.00
23 0.00
24 0.00
25 0.00
26 0.00
27 0.00
28 0.00
29 0.00

@<SCITEGIC>ATOM_PROPERTY
pdb_occupancy
SciTegic.value.DoubleValue
1 1.00
2 1.00
3 1.00
4 1.00
5 1.00
6 1.00
7 1.00
8 1.00
9 1.00
10 1.00
11 1.00
12 1.00
13 1.00
14 1.00
15 1.00
16 1.00
17 1.00
18 1.00
19 1.00
20 1.00
21 1.00
22 1.00
23 1.00
24 1.00
25 1.00
26 1.00
27 1.00
28 1.00
29 1.00

