#	copyright 2023 drugdesign.org
#	Creation time:	2024-01-10T22:36:12Z

@<TRIPOS>MOLECULE
Molecule
   21    23     0 0 0
SMALL
USER_CHARGES


@<TRIPOS>ATOM
      1 C1           10.797399  -12.671878    0.000950 C.2      1 SUBUNIT    0.0289
      2 C2           10.749082  -14.002533    0.000637 C.2      1 SUBUNIT    0.0023
      3 C3           11.993980  -14.777128    0.000069 C.2      1 SUBUNIT    0.0009
      4 C4           13.172916  -14.153022   -0.001128 C.2      1 SUBUNIT    0.0135
      5 C5           13.223203  -12.692152   -0.002488 C.2      1 SUBUNIT    0.0372
      6 C6           12.093704  -11.987951    0.000359 C.2      1 SUBUNIT    0.0752
      7 N7           12.148256  -10.594326    0.001223 N.2      1 SUBUNIT   -0.2362
      8 C8           14.514381  -11.966426   -0.000106 C.2      1 SUBUNIT    0.1166
      9 N9           15.770838  -12.663782    0.000972 N.pl3    1 SUBUNIT   -0.1428
     10 N10          14.494473  -10.693801    0.001061 N.2      1 SUBUNIT   -0.2244
     11 C11          17.033678  -11.912225    0.000555 C.3      1 SUBUNIT    0.0882
     12 C12          18.309416  -12.842731    0.000519 C.3      1 SUBUNIT    0.0204
     13 C13          19.596603  -11.942503   -0.000586 C.3      1 SUBUNIT    0.0366
     14 C14          20.920973  -12.723101   -0.000034 C.2      1 SUBUNIT   -0.0480
     15 C15          13.268560   -9.986923    0.000705 C.2      1 SUBUNIT    0.2238
     16 C16          20.944281  -14.056140   -0.000259 C.2      1 SUBUNIT    0.0035
     17 C17          22.236320  -14.770614   -0.000216 C.2      1 SUBUNIT    0.0003
     18 C18          23.382866  -14.090705    0.000096 C.2      1 SUBUNIT    0.0000
     19 C19          23.360592  -12.629807    0.000502 C.2      1 SUBUNIT    0.0003
     20 C20          22.196163  -11.980234    0.000507 C.2      1 SUBUNIT    0.0035
     21 H43          15.785910  -13.663668    0.002010 H        1 SUBUNIT    0.0000
@<TRIPOS>BOND
     1    1    2 2
     2    2    3 1
     3    3    4 2
     4    4    5 1
     5    5    6 2
     6    6    1 1
     7    6    7 1
     8    5    8 1
     9    8    9 1
    10    8   10 2
    11    9   11 1
    12   11   12 1
    13   12   13 1
    14   13   14 1
    15    7   15 2
    16   10   15 1
    17   14   16 2
    18   16   17 1
    19   17   18 2
    20   18   19 1
    21   19   20 2
    22   20   14 1
    23    9   21 1
@<SCITEGIC>ATOM_PROPERTY
Formal Charge
SciTegic.value.StringValue
1 0
2 0
3 0
4 0
5 0
6 0
7 0
8 0
9 0
10 0
11 0
12 0
13 0
14 0
15 0
16 0
17 0
18 0
19 0
20 0
21 0

@<SCITEGIC>ATOM_PROPERTY
pdb_tempFactor
SciTegic.value.DoubleValue
1 0.00
2 0.00
3 0.00
4 0.00
5 0.00
6 0.00
7 0.00
8 0.00
9 0.00
10 0.00
11 0.00
12 0.00
13 0.00
14 0.00
15 0.00
16 0.00
17 0.00
18 0.00
19 0.00
20 0.00
21 0.00

@<SCITEGIC>ATOM_PROPERTY
pdb_occupancy
SciTegic.value.DoubleValue
1 1.00
2 1.00
3 1.00
4 1.00
5 1.00
6 1.00
7 1.00
8 1.00
9 1.00
10 1.00
11 1.00
12 1.00
13 1.00
14 1.00
15 1.00
16 1.00
17 1.00
18 1.00
19 1.00
20 1.00
21 1.00

#	copyright 2023 drugdesign.org
#	Creation time:	2024-01-10T22:36:12Z

@<TRIPOS>MOLECULE
Molecule
   21    22     0 0 0
SMALL
USER_CHARGES


@<TRIPOS>ATOM
      1 C1           10.525833  -12.963572   -0.109667 C.2      1 SUBUNIT    0.0338
      2 C2           10.488693  -14.293640   -0.110899 C.2      1 SUBUNIT    0.0027
      3 C3           11.737682  -15.057331   -0.112643 C.2      1 SUBUNIT    0.0010
      4 C4           12.911362  -14.423661   -0.113782 C.2      1 SUBUNIT    0.0162
      5 C5           12.958018  -12.955467   -0.113152 C.2      1 SUBUNIT    0.0670
      6 C6           11.811717  -12.260767   -0.110376 C.2      1 SUBUNIT    0.0838
      7 O7           11.816137  -10.868683   -0.108638 O.3      1 SUBUNIT   -0.1418
      8 C8           14.275886  -12.248014   -0.111364 C.2      1 SUBUNIT    0.2456
      9 N9           15.504964  -12.963346   -0.110848 N.am     1 SUBUNIT   -0.1616
     10 O10          14.310186  -11.012902   -0.110741 O.2      1 SUBUNIT   -0.2718
     11 C11          16.758123  -12.211173   -0.111334 C.3      1 SUBUNIT    0.1050
     12 C12          18.027502  -13.129902   -0.111069 C.3      1 SUBUNIT    0.0237
     13 C13          19.298351  -12.217132   -0.114547 C.3      1 SUBUNIT    0.0369
     14 C14          20.622087  -12.986336   -0.110868 C.2      1 SUBUNIT   -0.0479
     15 C15          20.649529  -14.319529   -0.110018 C.2      1 SUBUNIT    0.0035
     16 C16          21.941473  -15.030362   -0.110082 C.2      1 SUBUNIT    0.0003
     17 C17          23.085138  -14.345728   -0.110952 C.2      1 SUBUNIT    0.0000
     18 C18          23.058962  -12.882434   -0.110810 C.2      1 SUBUNIT    0.0003
     19 C19          21.892563  -12.236269   -0.110385 C.2      1 SUBUNIT    0.0035
     20 H40          12.759764  -10.537888   -0.100421 H        1 SUBUNIT    0.0000
     21 H42          15.511713  -13.963324   -0.110165 H        1 SUBUNIT    0.0000
@<TRIPOS>BOND
     1    1    2 2
     2    2    3 1
     3    3    4 2
     4    4    5 1
     5    5    6 2
     6    6    1 1
     7    6    7 1
     8    5    8 1
     9    8    9 1
    10    8   10 2
    11    9   11 1
    12   11   12 1
    13   12   13 1
    14   13   14 1
    15   14   15 2
    16   15   16 1
    17   16   17 2
    18   17   18 1
    19   18   19 2
    20   19   14 1
    21    7   20 1
    22    9   21 1
@<SCITEGIC>ATOM_PROPERTY
Formal Charge
SciTegic.value.StringValue
1 0
2 0
3 0
4 0
5 0
6 0
7 0
8 0
9 0
10 0
11 0
12 0
13 0
14 0
15 0
16 0
17 0
18 0
19 0
20 0
21 0

@<SCITEGIC>ATOM_PROPERTY
pdb_tempFactor
SciTegic.value.DoubleValue
1 0.00
2 0.00
3 0.00
4 0.00
5 0.00
6 0.00
7 0.00
8 0.00
9 0.00
10 0.00
11 0.00
12 0.00
13 0.00
14 0.00
15 0.00
16 0.00
17 0.00
18 0.00
19 0.00
20 0.00
21 0.00

@<SCITEGIC>ATOM_PROPERTY
pdb_occupancy
SciTegic.value.DoubleValue
1 1.00
2 1.00
3 1.00
4 1.00
5 1.00
6 1.00
7 1.00
8 1.00
9 1.00
10 1.00
11 1.00
12 1.00
13 1.00
14 1.00
15 1.00
16 1.00
17 1.00
18 1.00
19 1.00
20 1.00
21 1.00

