#	copyright 2023 drugdesign.org
#	Creation time:	2024-01-10T22:36:47Z

@<TRIPOS>MOLECULE
mol-1
   32    36     0 0 0
SMALL
USER_CHARGES


@<TRIPOS>ATOM
      1 C1           15.137388  -14.809497    0.200115 C.2      1 SUBUNIT    0.0186
      2 C2           14.815876  -13.548327    0.039250 C.2      1 SUBUNIT    0.0579
      3 C3           13.382797  -13.426470   -0.089621 C.2      1 SUBUNIT   -0.0177
      4 C4           12.824292  -14.663795   -0.022573 C.2      1 SUBUNIT    0.0373
      5 N5           14.003602  -15.645587    0.098726 N.pl3    1 SUBUNIT   -0.2147
      6 C6           11.253291  -14.896270   -0.058987 C.2      1 SUBUNIT   -0.0064
      7 C7           14.012254  -17.176708    0.056086 C.2      1 SUBUNIT    0.0451
      8 C8           10.211737  -14.022291   -0.111533 C.2      1 SUBUNIT    0.0111
      9 C9            8.655180  -14.771865   -0.085747 C.2      1 SUBUNIT    0.0210
     10 C10           8.580515  -16.185051   -0.019944 C.2      1 SUBUNIT    0.0406
     11 C11           9.918540  -16.969767    0.019752 C.2      1 SUBUNIT    0.0210
     12 C12          10.472816  -15.846889   -0.028662 C.2      1 SUBUNIT    0.0111
     13 C13          12.854412  -17.772268    0.233917 C.2      1 SUBUNIT    0.0238
     14 C14          12.670837  -19.204788    0.220765 C.2      1 SUBUNIT    0.0221
     15 C15          13.695623  -20.013081    0.027496 C.2      1 SUBUNIT    0.0422
     16 C16          14.998478  -19.476423   -0.191806 C.2      1 SUBUNIT    0.0423
     17 C17          15.223189  -18.169651   -0.200000 C.2      1 SUBUNIT    0.0609
     18 Cl18          7.062846  -17.005163    0.019158 Cl       1 SUBUNIT   -0.0843
     19 Cl19         16.869450  -17.777931   -0.565997 Cl       1 SUBUNIT   -0.0825
     20 Cl20         13.461605  -21.714581    0.025112 Cl       1 SUBUNIT   -0.0843
     21 C21          12.684770  -12.086967   -0.229275 C.3      1 SUBUNIT    0.0468
     22 C22          15.843834  -12.485017    0.069265 C.2      1 SUBUNIT    0.2610
     23 N23          17.224989  -12.931041    0.011531 N.am     1 SUBUNIT   -0.2307
     24 O24          15.524388  -11.290542    0.091249 O.2      1 SUBUNIT   -0.2702
     25 C25          17.474480  -14.314297   -0.204309 C.3      1 SUBUNIT    0.1339
     26 C26          16.493471  -15.177621    0.521574 C.3      1 SUBUNIT    0.0700
     27 N27          18.327953  -12.147726    0.091504 N.3      1 SUBUNIT   -0.2254
     28 C28          19.627041  -12.849203    0.120714 C.3      1 SUBUNIT    0.1060
     29 C29          20.806250  -12.017477   -0.371448 C.3      1 SUBUNIT    0.0174
     30 C30          20.765120  -10.655502    0.291703 C.3      1 SUBUNIT    0.0028
     31 C31          19.500595   -9.975908   -0.229385 C.3      1 SUBUNIT    0.0174
     32 C32          18.246433  -10.712490    0.271168 C.3      1 SUBUNIT    0.1060
@<TRIPOS>BOND
     1    1    2 2
     2    3    4 2
     3    4    5 1
     4    5    1 1
     5    2    3 1
     6    4    6 1
     7    5    7 1
     8    6    8 2
     9    8    9 1
    10    9   10 2
    11   10   11 1
    12   11   12 2
    13   12    6 1
    14    7   13 2
    15   13   14 1
    16   14   15 2
    17   15   16 1
    18   16   17 2
    19   17    7 1
    20   10   18 1
    21   17   19 1
    22   15   20 1
    23    3   21 1
    24    2   22 1
    25   22   23 1
    26   22   24 2
    27   23   25 1
    28    1   26 1
    29   26   25 1
    30   23   27 1
    31   27   28 1
    32   27   32 1
    33   28   29 1
    34   29   30 1
    35   30   31 1
    36   31   32 1
@<SCITEGIC>ATOM_PROPERTY
Formal Charge
SciTegic.value.StringValue
1 0
2 0
3 0
4 0
5 0
6 0
7 0
8 0
9 0
10 0
11 0
12 0
13 0
14 0
15 0
16 0
17 0
18 0
19 0
20 0
21 0
22 0
23 0
24 0
25 0
26 0
27 0
28 0
29 0
30 0
31 0
32 0

@<SCITEGIC>ATOM_PROPERTY
pdb_tempFactor
SciTegic.value.DoubleValue
1 0.00
2 0.00
3 0.00
4 0.00
5 0.00
6 0.00
7 0.00
8 0.00
9 0.00
10 0.00
11 0.00
12 0.00
13 0.00
14 0.00
15 0.00
16 0.00
17 0.00
18 0.00
19 0.00
20 0.00
21 0.00
22 0.00
23 0.00
24 0.00
25 0.00
26 0.00
27 0.00
28 0.00
29 0.00
30 0.00
31 0.00
32 0.00

@<SCITEGIC>ATOM_PROPERTY
pdb_occupancy
SciTegic.value.DoubleValue
1 1.00
2 1.00
3 1.00
4 1.00
5 1.00
6 1.00
7 1.00
8 1.00
9 1.00
10 1.00
11 1.00
12 1.00
13 1.00
14 1.00
15 1.00
16 1.00
17 1.00
18 1.00
19 1.00
20 1.00
21 1.00
22 1.00
23 1.00
24 1.00
25 1.00
26 1.00
27 1.00
28 1.00
29 1.00
30 1.00
31 1.00
32 1.00

#	copyright 2023 drugdesign.org
#	Creation time:	2024-01-10T22:36:47Z

@<TRIPOS>MOLECULE
mol-2
   31    34     0 0 0
SMALL
USER_CHARGES


@<TRIPOS>ATOM
      1 N1           14.991224  -14.715780   -0.001580 N.2      1 SUBUNIT   -0.1837
      2 C2           14.622404  -13.493542   -0.006644 C.2      1 SUBUNIT    0.1467
      3 C3           13.153894  -13.398675   -0.004733 C.2      1 SUBUNIT    0.0025
      4 C4           12.642189  -14.647277    0.004027 C.2      1 SUBUNIT    0.0573
      5 N5           13.890671  -15.537938    0.001485 N.pl3    1 SUBUNIT   -0.1354
      6 C6           11.058985  -15.024771    0.016979 C.2      1 SUBUNIT   -0.0047
      7 C7           14.063973  -17.029554   -0.012272 C.2      1 SUBUNIT    0.0635
      8 C8           10.088984  -14.100905   -0.067323 C.2      1 SUBUNIT    0.0112
      9 C9            8.652540  -14.479307   -0.067314 C.2      1 SUBUNIT    0.0210
     10 C10           8.301016  -15.757949    0.022620 C.2      1 SUBUNIT    0.0406
     11 C11           9.316127  -16.751152    0.124157 C.2      1 SUBUNIT    0.0210
     12 C12          10.591861  -16.395634    0.121815 C.2      1 SUBUNIT    0.0112
     13 C13          13.033643  -17.855433   -0.063720 C.2      1 SUBUNIT    0.0254
     14 C14          13.144644  -19.290157   -0.067066 C.2      1 SUBUNIT    0.0221
     15 C15          14.336719  -19.851444   -0.024507 C.2      1 SUBUNIT    0.0422
     16 C16          15.529870  -19.000374    0.018354 C.2      1 SUBUNIT    0.0423
     17 C17          15.419976  -17.665745    0.025304 C.2      1 SUBUNIT    0.0625
     18 Cl18          6.642763  -16.233942    0.018864 Cl       1 SUBUNIT   -0.0843
     19 Cl19         16.863384  -16.709839    0.077678 Cl       1 SUBUNIT   -0.0824
     20 Cl20         14.462482  -21.573486   -0.015255 Cl       1 SUBUNIT   -0.0842
     21 C21          12.416930  -12.065378   -0.001652 C.3      1 SUBUNIT    0.0486
     22 C22          15.572331  -12.318830   -0.015132 C.2      1 SUBUNIT    0.2770
     23 N23          16.992138  -12.557558   -0.034277 N.am     1 SUBUNIT   -0.2433
     24 O24          15.116979  -11.170242   -0.008360 O.2      1 SUBUNIT   -0.2686
     25 H25          17.297224  -13.506012   -0.014350 H        1 SUBUNIT    0.1706
     26 N26          17.967346  -11.558846   -0.086521 N.3      1 SUBUNIT   -0.2280
     27 C27          19.358419  -11.999461   -0.148801 C.3      1 SUBUNIT    0.1058
     28 C28          20.375868  -10.950474    0.358759 C.3      1 SUBUNIT    0.0173
     29 C29          20.081942   -9.584399   -0.250232 C.3      1 SUBUNIT    0.0027
     30 C30          18.727114   -9.173301    0.308082 C.3      1 SUBUNIT    0.0173
     31 C31          17.630310  -10.128177   -0.207266 C.3      1 SUBUNIT    0.1058
@<TRIPOS>BOND
     1    1    2 2
     2    3    4 2
     3    4    5 1
     4    5    1 1
     5    2    3 1
     6    4    6 1
     7    5    7 1
     8    6    8 2
     9    8    9 1
    10    9   10 2
    11   10   11 1
    12   11   12 2
    13   12    6 1
    14    7   13 2
    15   13   14 1
    16   14   15 2
    17   15   16 1
    18   16   17 2
    19   17    7 1
    20   10   18 1
    21   17   19 1
    22   15   20 1
    23    3   21 1
    24    2   22 1
    25   22   23 1
    26   22   24 2
    27   23   25 1
    28   23   26 1
    29   26   27 1
    30   26   31 1
    31   27   28 1
    32   28   29 1
    33   29   30 1
    34   30   31 1
@<SCITEGIC>ATOM_PROPERTY
Formal Charge
SciTegic.value.StringValue
1 0
2 0
3 0
4 0
5 0
6 0
7 0
8 0
9 0
10 0
11 0
12 0
13 0
14 0
15 0
16 0
17 0
18 0
19 0
20 0
21 0
22 0
23 0
24 0
25 0
26 0
27 0
28 0
29 0
30 0
31 0

@<SCITEGIC>ATOM_PROPERTY
pdb_tempFactor
SciTegic.value.DoubleValue
1 0.00
2 0.00
3 0.00
4 0.00
5 0.00
6 0.00
7 0.00
8 0.00
9 0.00
10 0.00
11 0.00
12 0.00
13 0.00
14 0.00
15 0.00
16 0.00
17 0.00
18 0.00
19 0.00
20 0.00
21 0.00
22 0.00
23 0.00
24 0.00
25 0.00
26 0.00
27 0.00
28 0.00
29 0.00
30 0.00
31 0.00

@<SCITEGIC>ATOM_PROPERTY
pdb_occupancy
SciTegic.value.DoubleValue
1 1.00
2 1.00
3 1.00
4 1.00
5 1.00
6 1.00
7 1.00
8 1.00
9 1.00
10 1.00
11 1.00
12 1.00
13 1.00
14 1.00
15 1.00
16 1.00
17 1.00
18 1.00
19 1.00
20 1.00
21 1.00
22 1.00
23 1.00
24 1.00
25 1.00
26 1.00
27 1.00
28 1.00
29 1.00
30 1.00
31 1.00

