#	copyright 2023 drugdesign.org
#	Creation time:	2024-01-10T22:36:55Z

@<TRIPOS>MOLECULE
Molecule
   37    39     0 0 0
SMALL
USER_CHARGES


@<TRIPOS>ATOM
      1 C1           -4.584886    1.332864   -0.051306 C.ar     1 SUBUNIT    0.0320
      2 C2           -3.261840    0.929496    0.011010 C.ar     1 SUBUNIT    0.0253
      3 C3           -2.964625   -0.426634    0.060302 C.ar     1 SUBUNIT   -0.0176
      4 C4           -3.963759   -1.396269    0.049253 C.ar     1 SUBUNIT    0.1056
      5 C5           -5.305171   -0.983819   -0.007163 C.ar     1 SUBUNIT    0.1064
      6 C6           -5.595848    0.380102   -0.057415 C.ar     1 SUBUNIT   -0.0100
      7 C13          -2.250006    1.886300    0.023150 C.ar     1 SUBUNIT    0.0758
      8 N14          -2.607169    3.170402   -0.032948 N.ar     1 SUBUNIT   -0.2455
      9 C15          -3.891443    3.523430   -0.095880 C.ar     1 SUBUNIT    0.0288
     10 N16          -4.871319    2.626592   -0.102064 N.ar     1 SUBUNIT   -0.2550
     11 N22          -0.863971    1.415501    0.111177 N.pl3    1 SUBUNIT   -0.2487
     12 H24          -0.722958    0.436135    0.226926 H        1 SUBUNIT    0.1352
     13 C26           0.328958    2.229182    0.072679 C.ar     1 SUBUNIT    0.0212
     14 C28           0.331185    3.584890   -0.241173 C.ar     1 SUBUNIT   -0.0437
     15 C29           1.524921    4.301049   -0.261755 C.ar     1 SUBUNIT    0.0032
     16 C30           2.727830    3.669492    0.036752 C.ar     1 SUBUNIT   -0.0434
     17 C31           2.736487    2.316055    0.352884 C.ar     1 SUBUNIT    0.0422
     18 C32           1.540146    1.605307    0.364939 C.ar     1 SUBUNIT   -0.0251
     19 H39          -0.529689    4.047440   -0.453171 H        1 SUBUNIT    0.0639
     20 H41           3.583212    4.187332    0.023942 H        1 SUBUNIT    0.0638
     21 Cl45          4.236380    1.514596    0.734705 Cl       1 SUBUNIT   -0.0842
     22 H45           1.549841    0.630345    0.587103 H        1 SUBUNIT    0.0655
     23 H47          -2.007844   -0.714001    0.104895 H        1 SUBUNIT    0.0659
     24 O51          -3.494611   -2.770276    0.099640 O.3      1 SUBUNIT   -0.3465
     25 O53          -6.385780   -1.899415   -0.014445 O.3      1 SUBUNIT   -0.3465
     26 H53          -6.549794    0.677239   -0.098597 H        1 SUBUNIT    0.0668
     27 H55          -1.925561    3.881170   -0.022360 H        1 SUBUNIT    0.1356
     28 H57          -4.124509    4.494896   -0.139849 H        1 SUBUNIT    0.0889
     29 H59          -5.825154    2.927964   -0.145328 H        1 SUBUNIT    0.1346
     30 C63          -4.458889   -3.834835    0.085762 C.3      1 SUBUNIT    0.0424
     31 C65          -7.654019   -1.229161   -0.067785 C.3      1 SUBUNIT    0.0424
     32 H65          -3.985343   -4.714685    0.124928 H        1 SUBUNIT    0.0535
     33 H67          -4.999283   -3.784797   -0.754194 H        1 SUBUNIT    0.0535
     34 H69          -5.064288   -3.747178    0.876878 H        1 SUBUNIT    0.0535
     35 H71          -8.389639   -1.906485   -0.071354 H        1 SUBUNIT    0.0535
     36 H73          -7.705342   -0.677651   -0.900406 H        1 SUBUNIT    0.0535
     37 H75          -7.751827   -0.635763    0.731195 H        1 SUBUNIT    0.0535
@<TRIPOS>BOND
     1    1    2 ar
     2    2    3 ar
     3    3    4 ar
     4    4    5 ar
     5    5    6 ar
     6    6    1 ar
     7    7    8 ar
     8    8    9 ar
     9    9   10 ar
    10    1   10 ar
    11    2    7 ar
    12    7   11 1
    13   11   12 1
    14   11   13 1
    15   14   15 ar
    16   15   16 ar
    17   16   17 ar
    18   17   18 ar
    19   13   14 ar
    20   13   18 ar
    21   14   19 1
    22   16   20 1
    23   17   21 1
    24   18   22 1
    25    3   23 1
    26    4   24 1
    27    5   25 1
    28    6   26 1
    29    8   27 1
    30    9   28 1
    31   10   29 1
    32   24   30 1
    33   25   31 1
    34   30   32 1
    35   30   33 1
    36   30   34 1
    37   31   35 1
    38   31   36 1
    39   31   37 1
@<SCITEGIC>ATOM_PROPERTY
Formal Charge
SciTegic.value.StringValue
1 0
2 0
3 0
4 0
5 0
6 0
7 0
8 0
9 0
10 0
11 0
12 0
13 0
14 0
15 0
16 0
17 0
18 0
19 0
20 0
21 0
22 0
23 0
24 0
25 0
26 0
27 0
28 0
29 0
30 0
31 0
32 0
33 0
34 0
35 0
36 0
37 0

@<SCITEGIC>ATOM_PROPERTY
pdb_tempFactor
SciTegic.value.DoubleValue
1 0.00
2 0.00
3 0.00
4 0.00
5 0.00
6 0.00
7 0.00
8 0.00
9 0.00
10 0.00
11 0.00
12 0.00
13 0.00
14 0.00
15 0.00
16 0.00
17 0.00
18 0.00
19 0.00
20 0.00
21 0.00
22 0.00
23 0.00
24 0.00
25 0.00
26 0.00
27 0.00
28 0.00
29 0.00
30 0.00
31 0.00
32 0.00
33 0.00
34 0.00
35 0.00
36 0.00
37 0.00

@<SCITEGIC>ATOM_PROPERTY
pdb_occupancy
SciTegic.value.DoubleValue
1 1.00
2 1.00
3 1.00
4 1.00
5 1.00
6 1.00
7 1.00
8 1.00
9 1.00
10 1.00
11 1.00
12 1.00
13 1.00
14 1.00
15 1.00
16 1.00
17 1.00
18 1.00
19 1.00
20 1.00
21 1.00
22 1.00
23 1.00
24 1.00
25 1.00
26 1.00
27 1.00
28 1.00
29 1.00
30 1.00
31 1.00
32 1.00
33 1.00
34 1.00
35 1.00
36 1.00
37 1.00

#	copyright 2023 drugdesign.org
#	Creation time:	2024-01-10T22:36:55Z

@<TRIPOS>MOLECULE
Molecule
   35    36     0 0 0
SMALL
USER_CHARGES


@<TRIPOS>ATOM
      1 C1            1.618713    4.153024   -0.276938 C.ar     1 SUBUNIT   -0.0589
      2 C2            2.834686    3.666411    0.188801 C.ar     1 SUBUNIT   -0.0434
      3 C3            2.919131    2.372720    0.691170 C.ar     1 SUBUNIT    0.0424
      4 C4            1.783625    1.569193    0.724437 C.ar     1 SUBUNIT   -0.0220
      5 C5            0.562714    2.048201    0.258716 C.ar     1 SUBUNIT    0.0342
      6 C6            0.488422    3.345109   -0.241601 C.ar     1 SUBUNIT   -0.0406
      7 C13          -4.367536    1.118973    0.303086 C.ar     1 SUBUNIT    0.0866
      8 C14          -3.040233    0.697586    0.332815 C.ar     1 SUBUNIT    0.0701
      9 C15          -2.760805   -0.661870    0.385249 C.ar     1 SUBUNIT   -0.0139
     10 C16          -3.768921   -1.619895    0.409162 C.ar     1 SUBUNIT    0.1057
     11 C17          -5.105897   -1.194733    0.377358 C.ar     1 SUBUNIT    0.1074
     12 C18          -5.380615    0.170221    0.325197 C.ar     1 SUBUNIT    0.0018
     13 O13          -4.719632    2.479463    0.248565 O.3      1 SUBUNIT   -0.3600
     14 C15          -1.922018    1.661611    0.306764 C.2      1 SUBUNIT    0.2499
     15 H29          -1.806741   -0.960728    0.406432 H        1 SUBUNIT    0.0661
     16 O19          -3.313010   -2.989506    0.465637 O.3      1 SUBUNIT   -0.3466
     17 O21          -6.199857   -2.091386    0.395221 O.3      1 SUBUNIT   -0.3465
     18 H35          -6.332942    0.474507    0.303100 H        1 SUBUNIT    0.0679
     19 C25          -4.288614   -4.041986    0.495577 C.3      1 SUBUNIT    0.0423
     20 C27          -7.456634   -1.392947    0.348388 C.3      1 SUBUNIT    0.0423
     21 H41          -3.824133   -4.926699    0.533783 H        1 SUBUNIT    0.0535
     22 H43          -4.852884   -3.997637   -0.328856 H        1 SUBUNIT    0.0535
     23 H45          -4.869443   -3.935873    1.302691 H        1 SUBUNIT    0.0535
     24 H47          -8.206681   -2.054116    0.362443 H        1 SUBUNIT    0.0535
     25 H49          -7.506300   -0.851051   -0.490622 H        1 SUBUNIT    0.0535
     26 H51          -7.531766   -0.787483    1.140741 H        1 SUBUNIT    0.0535
     27 N41          -0.574142    1.184598    0.308630 N.am     1 SUBUNIT   -0.2812
     28 O43          -2.177288    2.869822    0.273379 O.2      1 SUBUNIT   -0.2714
     29 H57          -0.415246    0.201827    0.338618 H        1 SUBUNIT    0.1560
     30 H59          -3.897927    3.047164    0.237153 H        1 SUBUNIT    0.2183
     31 Cl62          4.440871    1.761746    1.275551 Cl       1 SUBUNIT   -0.0843
     32 H64           1.557271    5.083852   -0.637196 H        1 SUBUNIT    0.0624
     33 H66           3.648635    4.246755    0.162531 H        1 SUBUNIT    0.0638
     34 H68           1.845382    0.639008    1.086296 H        1 SUBUNIT    0.0658
     35 H70          -0.384643    3.698033   -0.578058 H        1 SUBUNIT    0.0642
@<TRIPOS>BOND
     1    1    2 ar
     2    2    3 ar
     3    3    4 ar
     4    4    5 ar
     5    5    6 ar
     6    6    1 ar
     7    7    8 ar
     8    8    9 ar
     9    9   10 ar
    10   10   11 ar
    11   11   12 ar
    12   12    7 ar
    13    7   13 1
    14    8   14 1
    15    9   15 1
    16   10   16 1
    17   11   17 1
    18   12   18 1
    19   16   19 1
    20   17   20 1
    21   19   21 1
    22   19   22 1
    23   19   23 1
    24   20   24 1
    25   20   25 1
    26   20   26 1
    27   14   27 1
    28   14   28 2
    29   27   29 1
    30   13   30 1
    31   27    5 1
    32    3   31 1
    33    1   32 1
    34    2   33 1
    35    4   34 1
    36    6   35 1
@<SCITEGIC>ATOM_PROPERTY
Formal Charge
SciTegic.value.StringValue
1 0
2 0
3 0
4 0
5 0
6 0
7 0
8 0
9 0
10 0
11 0
12 0
13 0
14 0
15 0
16 0
17 0
18 0
19 0
20 0
21 0
22 0
23 0
24 0
25 0
26 0
27 0
28 0
29 0
30 0
31 0
32 0
33 0
34 0
35 0

@<SCITEGIC>ATOM_PROPERTY
pdb_tempFactor
SciTegic.value.DoubleValue
1 0.00
2 0.00
3 0.00
4 0.00
5 0.00
6 0.00
7 0.00
8 0.00
9 0.00
10 0.00
11 0.00
12 0.00
13 0.00
14 0.00
15 0.00
16 0.00
17 0.00
18 0.00
19 0.00
20 0.00
21 0.00
22 0.00
23 0.00
24 0.00
25 0.00
26 0.00
27 0.00
28 0.00
29 0.00
30 0.00
31 0.00
32 0.00
33 0.00
34 0.00
35 0.00

@<SCITEGIC>ATOM_PROPERTY
pdb_occupancy
SciTegic.value.DoubleValue
1 1.00
2 1.00
3 1.00
4 1.00
5 1.00
6 1.00
7 1.00
8 1.00
9 1.00
10 1.00
11 1.00
12 1.00
13 1.00
14 1.00
15 1.00
16 1.00
17 1.00
18 1.00
19 1.00
20 1.00
21 1.00
22 1.00
23 1.00
24 1.00
25 1.00
26 1.00
27 1.00
28 1.00
29 1.00
30 1.00
31 1.00
32 1.00
33 1.00
34 1.00
35 1.00

