#	copyright 2023 drugdesign.org
#	Creation time:	2024-01-10T22:36:20Z

@<TRIPOS>MOLECULE
Molecule
   14    14     0 0 0
SMALL
USER_CHARGES


@<TRIPOS>ATOM
      1 C1           10.900032  -11.267648   -0.000209 C.2      1 SUBUNIT    0.0009
      2 C2           10.933734  -12.598534    0.000084 C.2      1 SUBUNIT    0.0017
      3 C3           12.216599  -13.297894   -0.000308 C.2      1 SUBUNIT    0.0205
      4 C4           13.354753  -12.607783   -0.001750 C.2      1 SUBUNIT    0.0269
      5 C5           13.319090  -11.135877    0.000080 C.2      1 SUBUNIT    0.0549
      6 C6           12.147271  -10.503373    0.000915 C.2      1 SUBUNIT    0.0151
      7 C7           14.563308  -10.358191    0.000863 C.2      1 SUBUNIT    0.2443
      8 O            15.657850  -10.932532    0.000026 O.2      1 SUBUNIT   -0.2719
      9 N            14.516034   -8.965812    0.000493 N.am     1 SUBUNIT   -0.3144
     10 C10          15.734302   -8.208387    0.000320 C.3      1 SUBUNIT    0.1289
     11 H11          13.639915   -8.497931    0.000439 H        1 SUBUNIT    0.1493
     12 N            14.578659  -13.285896    0.000209 N.pl3    1 SUBUNIT   -0.2911
     13 C13          14.612614  -14.713923    0.000584 C.3      1 SUBUNIT    0.1070
     14 H            15.432652  -12.771359    0.001237 H        1 SUBUNIT    0.1278
@<TRIPOS>BOND
     1    1    2 2
     2    2    3 1
     3    3    4 2
     4    4    5 1
     5    5    6 2
     6    6    1 1
     7    5    7 1
     8    7    8 2
     9    7    9 1
    10    9   10 1
    11    9   11 1
    12    4   12 1
    13   12   13 1
    14   12   14 1
@<SCITEGIC>ATOM_PROPERTY
Formal Charge
SciTegic.value.StringValue
1 0
2 0
3 0
4 0
5 0
6 0
7 0
8 0
9 0
10 0
11 0
12 0
13 0
14 0

@<SCITEGIC>ATOM_PROPERTY
pdb_tempFactor
SciTegic.value.DoubleValue
1 0.00
2 0.00
3 0.00
4 0.00
5 0.00
6 0.00
7 0.00
8 0.00
9 0.00
10 0.00
11 0.00
12 0.00
13 0.00
14 0.00

@<SCITEGIC>ATOM_PROPERTY
pdb_occupancy
SciTegic.value.DoubleValue
1 1.00
2 1.00
3 1.00
4 1.00
5 1.00
6 1.00
7 1.00
8 1.00
9 1.00
10 1.00
11 1.00
12 1.00
13 1.00
14 1.00

#	copyright 2023 drugdesign.org
#	Creation time:	2024-01-10T22:36:20Z

@<TRIPOS>MOLECULE
Molecule
   14    15     0 0 0
SMALL
USER_CHARGES


@<TRIPOS>ATOM
      1 C1            1.437912  -11.065712   -0.329144 C.2      1 SUBUNIT    0.0008
      2 C2            1.472104  -12.397986   -0.345048 C.2      1 SUBUNIT    0.0007
      3 C3            2.759600  -13.091042   -0.437688 C.2      1 SUBUNIT    0.0106
      4 C4            2.687417  -10.305601   -0.404250 C.2      1 SUBUNIT    0.0120
      5 C5            3.846313  -10.955409   -0.487374 C.2      1 SUBUNIT    0.0224
      6 C6            3.882828  -12.378755   -0.504597 C.2      1 SUBUNIT    0.0080
      7 C7            5.179420  -13.009571   -0.597124 C.2      1 SUBUNIT    0.0679
      8 N3            6.231106  -12.286886   -0.659985 N.2      1 SUBUNIT   -0.1536
      9 N2            6.196347  -10.921298   -0.643403 N.2      1 SUBUNIT   -0.1380
     10 C10           5.108891  -10.255548   -0.563863 C.2      1 SUBUNIT    0.1360
     11 N11           5.140794   -8.861163   -0.551394 N.pl3    1 SUBUNIT   -0.2740
     12 C12           6.396556   -8.172206   -0.627450 C.3      1 SUBUNIT    0.1087
     13 H13           4.294162   -8.343529   -0.490294 H        1 SUBUNIT    0.1294
     14 C14           5.290489  -14.506837   -0.619834 C.3      1 SUBUNIT    0.0692
@<TRIPOS>BOND
     1    1    2 2
     2    2    3 1
     3    3    6 2
     4    5    4 2
     5    4    1 1
     6    5    6 1
     7    6    7 1
     8    7    8 2
     9    8    9 1
    10    9   10 2
    11   10    5 1
    12   10   11 1
    13   11   12 1
    14   11   13 1
    15    7   14 1
@<SCITEGIC>ATOM_PROPERTY
Formal Charge
SciTegic.value.StringValue
1 0
2 0
3 0
4 0
5 0
6 0
7 0
8 0
9 0
10 0
11 0
12 0
13 0
14 0

@<SCITEGIC>ATOM_PROPERTY
pdb_tempFactor
SciTegic.value.DoubleValue
1 0.00
2 0.00
3 0.00
4 0.00
5 0.00
6 0.00
7 0.00
8 0.00
9 0.00
10 0.00
11 0.00
12 0.00
13 0.00
14 0.00

@<SCITEGIC>ATOM_PROPERTY
pdb_occupancy
SciTegic.value.DoubleValue
1 1.00
2 1.00
3 1.00
4 1.00
5 1.00
6 1.00
7 1.00
8 1.00
9 1.00
10 1.00
11 1.00
12 1.00
13 1.00
14 1.00

