#	copyright 2023 drugdesign.org
#	Creation time:	2024-01-10T22:36:15Z

@<TRIPOS>MOLECULE
Molecule
   40    43     0 0 0
SMALL
USER_CHARGES


@<TRIPOS>ATOM
      1 C1           -1.597831    2.257887   -0.139475 C.ar     1 SUBUNIT    0.1406
      2 C2           -0.387697    1.578512   -0.170012 C.ar     1 SUBUNIT    0.0228
      3 C3           -0.404645    0.195842   -0.134865 C.ar     1 SUBUNIT    0.0087
      4 C4           -1.628894   -0.450544   -0.069297 C.ar     1 SUBUNIT    0.0754
      5 N5           -2.739258    0.282822   -0.047217 N.ar     1 SUBUNIT   -0.1530
      6 N6           -2.724798    1.552508   -0.082024 N.ar     1 SUBUNIT   -0.1376
      7 C13           0.786043   -0.521386   -0.159348 C.ar     1 SUBUNIT   -0.0523
      8 C14           1.998093    0.156787   -0.221970 C.ar     1 SUBUNIT   -0.0615
      9 C15           2.016131    1.546985   -0.257516 C.ar     1 SUBUNIT   -0.0615
     10 C16           0.822378    2.259270   -0.230690 C.ar     1 SUBUNIT   -0.0510
     11 N22          -1.580289    3.685978   -0.161237 N.pl3    1 SUBUNIT   -0.2410
     12 C24          -1.641321   -1.979416   -0.001583 C.3      1 SUBUNIT    0.0175
     13 C26          -2.732667    4.503829   -0.311708 C.ar     1 SUBUNIT    0.0203
     14 H28          -0.707670    4.143919   -0.056202 H        1 SUBUNIT    0.1358
     15 C30          -2.964242   -2.671298   -0.284259 C.ar     1 SUBUNIT   -0.0389
     16 H32          -0.976284   -2.316277   -0.668105 H        1 SUBUNIT    0.0383
     17 H34          -1.353837   -2.242904    0.919246 H        1 SUBUNIT    0.0383
     18 C36          -3.048480    5.535596    0.567324 C.ar     1 SUBUNIT   -0.0424
     19 C37          -4.193989    6.299348    0.369896 C.ar     1 SUBUNIT   -0.0419
     20 C38          -5.029181    6.035553   -0.709812 C.ar     1 SUBUNIT    0.0407
     21 C39          -4.717850    5.007738   -1.590881 C.ar     1 SUBUNIT   -0.0419
     22 C40          -3.573591    4.245755   -1.388965 C.ar     1 SUBUNIT   -0.0424
     23 H47          -2.449200    5.728653    1.344237 H        1 SUBUNIT    0.0640
     24 H49          -4.417037    7.038811    1.005071 H        1 SUBUNIT    0.0639
     25 Cl51         -6.453307    6.981809   -0.958470 Cl       1 SUBUNIT   -0.0843
     26 H53          -5.316125    4.816563   -2.369030 H        1 SUBUNIT    0.0639
     27 H55          -3.352800    3.505322   -2.023789 H        1 SUBUNIT    0.0640
     28 C57          -3.976802   -2.777915    0.660355 C.ar     1 SUBUNIT   -0.0402
     29 C58          -5.159698   -3.423509    0.320089 C.ar     1 SUBUNIT    0.0271
     30 N59          -5.327347   -3.937286   -0.894559 N.ar     1 SUBUNIT   -0.2646
     31 C60          -4.379669   -3.850462   -1.821911 C.ar     1 SUBUNIT    0.0271
     32 C61          -3.176092   -3.213991   -1.544352 C.ar     1 SUBUNIT   -0.0402
     33 H68          -3.856038   -2.394152    1.575856 H        1 SUBUNIT    0.0642
     34 H70          -5.892395   -3.502374    0.996056 H        1 SUBUNIT    0.0839
     35 H72          -4.533940   -4.246475   -2.727103 H        1 SUBUNIT    0.0839
     36 H74          -2.467756   -3.147350   -2.247073 H        1 SUBUNIT    0.0642
     37 H76           0.770776   -1.520897   -0.132030 H        1 SUBUNIT    0.0630
     38 H78           2.856961   -0.355036   -0.241456 H        1 SUBUNIT    0.0623
     39 H80           2.888091    2.034499   -0.302388 H        1 SUBUNIT    0.0623
     40 H82           0.834474    3.258901   -0.254996 H        1 SUBUNIT    0.0630
@<TRIPOS>BOND
     1    1    2 ar
     2    2    3 ar
     3    3    4 ar
     4    4    5 ar
     5    5    6 ar
     6    6    1 ar
     7    7    8 ar
     8    8    9 ar
     9    9   10 ar
    10    2   10 ar
    11    3    7 ar
    12    1   11 1
    13    4   12 1
    14   11   13 1
    15   11   14 1
    16   12   15 1
    17   12   16 1
    18   12   17 1
    19   18   19 ar
    20   19   20 ar
    21   20   21 ar
    22   21   22 ar
    23   13   18 ar
    24   13   22 ar
    25   18   23 1
    26   19   24 1
    27   20   25 1
    28   21   26 1
    29   22   27 1
    30   28   29 ar
    31   29   30 ar
    32   30   31 ar
    33   31   32 ar
    34   15   28 ar
    35   15   32 ar
    36   28   33 1
    37   29   34 1
    38   31   35 1
    39   32   36 1
    40    7   37 1
    41    8   38 1
    42    9   39 1
    43   10   40 1
@<SCITEGIC>ATOM_PROPERTY
Formal Charge
SciTegic.value.StringValue
1 0
2 0
3 0
4 0
5 0
6 0
7 0
8 0
9 0
10 0
11 0
12 0
13 0
14 0
15 0
16 0
17 0
18 0
19 0
20 0
21 0
22 0
23 0
24 0
25 0
26 0
27 0
28 0
29 0
30 0
31 0
32 0
33 0
34 0
35 0
36 0
37 0
38 0
39 0
40 0

@<SCITEGIC>ATOM_PROPERTY
pdb_tempFactor
SciTegic.value.DoubleValue
1 0.00
2 0.00
3 0.00
4 0.00
5 0.00
6 0.00
7 0.00
8 0.00
9 0.00
10 0.00
11 0.00
12 0.00
13 0.00
14 0.00
15 0.00
16 0.00
17 0.00
18 0.00
19 0.00
20 0.00
21 0.00
22 0.00
23 0.00
24 0.00
25 0.00
26 0.00
27 0.00
28 0.00
29 0.00
30 0.00
31 0.00
32 0.00
33 0.00
34 0.00
35 0.00
36 0.00
37 0.00
38 0.00
39 0.00
40 0.00

@<SCITEGIC>ATOM_PROPERTY
pdb_occupancy
SciTegic.value.DoubleValue
1 1.00
2 1.00
3 1.00
4 1.00
5 1.00
6 1.00
7 1.00
8 1.00
9 1.00
10 1.00
11 1.00
12 1.00
13 1.00
14 1.00
15 1.00
16 1.00
17 1.00
18 1.00
19 1.00
20 1.00
21 1.00
22 1.00
23 1.00
24 1.00
25 1.00
26 1.00
27 1.00
28 1.00
29 1.00
30 1.00
31 1.00
32 1.00
33 1.00
34 1.00
35 1.00
36 1.00
37 1.00
38 1.00
39 1.00
40 1.00

#	copyright 2023 drugdesign.org
#	Creation time:	2024-01-10T22:36:15Z

@<TRIPOS>MOLECULE
Molecule
   40    42     0 0 0
SMALL
USER_CHARGES


@<TRIPOS>ATOM
      1 C1           -2.056426    2.263713    0.040021 C.2      1 SUBUNIT    0.2488
      2 C2           -0.782166    1.516405    0.096348 C.ar     1 SUBUNIT    0.0553
      3 C3           -0.746629    0.120163    0.073219 C.ar     1 SUBUNIT    0.0275
      4 N4           -1.925196   -0.651708    0.020529 N.pl3    1 SUBUNIT   -0.2836
      5 O5           -3.115828    1.650229   -0.131584 O.2      1 SUBUNIT   -0.2715
      6 C10           0.479137   -0.537070    0.099838 C.ar     1 SUBUNIT   -0.0434
      7 C11           1.665960    0.183105    0.154229 C.ar     1 SUBUNIT   -0.0606
      8 C12           1.630450    1.571109    0.184662 C.ar     1 SUBUNIT   -0.0614
      9 C13           0.408897    2.232706    0.155405 C.ar     1 SUBUNIT   -0.0481
     10 N22          -2.043106    3.680085    0.191152 N.am     1 SUBUNIT   -0.2813
     11 C24          -1.837990   -2.066915   -0.185219 C.3      1 SUBUNIT    0.0252
     12 C26          -3.189331    4.487779   -0.038012 C.ar     1 SUBUNIT    0.0328
     13 H25          -1.200939    4.122411    0.482017 H        1 SUBUNIT    0.1560
     14 C30          -3.205439   -2.666620   -0.275983 C.ar     1 SUBUNIT   -0.0307
     15 H29          -1.342764   -2.246152   -1.035292 H        1 SUBUNIT    0.0482
     16 H31          -1.346880   -2.481382    0.580958 H        1 SUBUNIT    0.0482
     17 C33          -3.495878    5.492843    0.872216 C.ar     1 SUBUNIT   -0.0392
     18 C34          -4.609608    6.301000    0.674393 C.ar     1 SUBUNIT   -0.0417
     19 C35          -5.418968    6.115707   -0.437915 C.ar     1 SUBUNIT    0.0407
     20 C36          -5.113564    5.118464   -1.354417 C.ar     1 SUBUNIT   -0.0417
     21 C37          -4.003768    4.307252   -1.152159 C.ar     1 SUBUNIT   -0.0392
     22 H44          -2.913055    5.635021    1.672281 H        1 SUBUNIT    0.0643
     23 H46          -4.828421    7.018384    1.335815 H        1 SUBUNIT    0.0639
     24 Cl51         -6.799640    7.123238   -0.678350 Cl       1 SUBUNIT   -0.0843
     25 H50          -5.691706    4.984187   -2.159228 H        1 SUBUNIT    0.0639
     26 H52          -3.788433    3.587816   -1.812495 H        1 SUBUNIT    0.0643
     27 C54          -4.190576   -2.371185    0.656834 C.ar     1 SUBUNIT   -0.0393
     28 C55          -5.443933   -2.957263    0.516950 C.ar     1 SUBUNIT    0.0271
     29 N59          -5.701262   -3.779101   -0.496860 N.ar     1 SUBUNIT   -0.2647
     30 C57          -4.777400   -4.075600   -1.405393 C.ar     1 SUBUNIT    0.0271
     31 C58          -3.502129   -3.532262   -1.318223 C.ar     1 SUBUNIT   -0.0393
     32 H65          -4.002138   -1.747973    1.415846 H        1 SUBUNIT    0.0642
     33 H67          -6.159945   -2.758596    1.186172 H        1 SUBUNIT    0.0840
     34 H69          -5.002341   -4.694826   -2.157697 H        1 SUBUNIT    0.0840
     35 H71          -2.806365   -3.762397   -1.998627 H        1 SUBUNIT    0.0642
     36 H73           0.506258   -1.536498    0.079649 H        1 SUBUNIT    0.0640
     37 H75           2.543242   -0.296564    0.171416 H        1 SUBUNIT    0.0623
     38 H77           2.482199    2.093302    0.227540 H        1 SUBUNIT    0.0623
     39 H79           0.385773    3.232206    0.176984 H        1 SUBUNIT    0.0631
     40 H81          -2.816139   -0.212645    0.076560 H        1 SUBUNIT    0.1285
@<TRIPOS>BOND
     1    1    2 1
     2    2    3 ar
     3    3    4 1
     4    5    1 2
     5    6    7 ar
     6    7    8 ar
     7    8    9 ar
     8    2    9 ar
     9    3    6 ar
    10    1   10 1
    11    4   11 1
    12   10   12 1
    13   10   13 1
    14   11   14 1
    15   11   15 1
    16   11   16 1
    17   17   18 ar
    18   18   19 ar
    19   19   20 ar
    20   20   21 ar
    21   12   17 ar
    22   12   21 ar
    23   17   22 1
    24   18   23 1
    25   19   24 1
    26   20   25 1
    27   21   26 1
    28   27   28 ar
    29   28   29 ar
    30   29   30 ar
    31   30   31 ar
    32   14   27 ar
    33   14   31 ar
    34   27   32 1
    35   28   33 1
    36   30   34 1
    37   31   35 1
    38    6   36 1
    39    7   37 1
    40    8   38 1
    41    9   39 1
    42    4   40 1
@<SCITEGIC>ATOM_PROPERTY
Formal Charge
SciTegic.value.StringValue
1 0
2 0
3 0
4 0
5 0
6 0
7 0
8 0
9 0
10 0
11 0
12 0
13 0
14 0
15 0
16 0
17 0
18 0
19 0
20 0
21 0
22 0
23 0
24 0
25 0
26 0
27 0
28 0
29 0
30 0
31 0
32 0
33 0
34 0
35 0
36 0
37 0
38 0
39 0
40 0

@<SCITEGIC>ATOM_PROPERTY
pdb_tempFactor
SciTegic.value.DoubleValue
1 0.00
2 0.00
3 0.00
4 0.00
5 0.00
6 0.00
7 0.00
8 0.00
9 0.00
10 0.00
11 0.00
12 0.00
13 0.00
14 0.00
15 0.00
16 0.00
17 0.00
18 0.00
19 0.00
20 0.00
21 0.00
22 0.00
23 0.00
24 0.00
25 0.00
26 0.00
27 0.00
28 0.00
29 0.00
30 0.00
31 0.00
32 0.00
33 0.00
34 0.00
35 0.00
36 0.00
37 0.00
38 0.00
39 0.00
40 0.00

@<SCITEGIC>ATOM_PROPERTY
pdb_occupancy
SciTegic.value.DoubleValue
1 1.00
2 1.00
3 1.00
4 1.00
5 1.00
6 1.00
7 1.00
8 1.00
9 1.00
10 1.00
11 1.00
12 1.00
13 1.00
14 1.00
15 1.00
16 1.00
17 1.00
18 1.00
19 1.00
20 1.00
21 1.00
22 1.00
23 1.00
24 1.00
25 1.00
26 1.00
27 1.00
28 1.00
29 1.00
30 1.00
31 1.00
32 1.00
33 1.00
34 1.00
35 1.00
36 1.00
37 1.00
38 1.00
39 1.00
40 1.00

