#	copyright 2023 drugdesign.org
#	Creation time:	2024-01-10T22:36:50Z

@<TRIPOS>MOLECULE
Molecule
   36    38     0 0 0
SMALL
USER_CHARGES


@<TRIPOS>ATOM
      1 C1           16.998951  -11.022467   -0.716207 C.2      1 SUBUNIT    0.0751
      2 C2           16.893139  -11.978464    0.212073 C.2      1 SUBUNIT    0.0349
      3 C3           18.071270  -12.784735    0.579812 C.2      1 SUBUNIT    0.0228
      4 C4           19.243282  -12.568945   -0.019991 C.2      1 SUBUNIT    0.0203
      5 C5           19.341839  -11.520179   -1.034777 C.2      1 SUBUNIT    0.0228
      6 C6           18.283007  -10.786902   -1.360620 C.2      1 SUBUNIT    0.0349
      7 N7           20.368864  -13.359308    0.338896 N.pl3    1 SUBUNIT   -0.1072
      8 C8           21.725313  -12.894664    0.321448 C.2      1 SUBUNIT    0.1150
      9 C9           22.704546  -13.779729    0.197638 C.2      1 SUBUNIT    0.0856
     10 C10          23.283464  -11.150810    0.382126 C.2      1 SUBUNIT    0.2254
     11 N11          22.065229  -11.534308    0.415681 N.2      1 SUBUNIT   -0.2245
     12 N12          24.343287  -12.077949    0.249447 N.2      1 SUBUNIT   -0.2209
     13 C13          24.091604  -13.322026    0.162443 C.2      1 SUBUNIT    0.1324
     14 N14          25.103413  -14.294899    0.028186 N.am     1 SUBUNIT   -0.2424
     15 C15          26.488979  -14.024728   -0.045089 C.2      1 SUBUNIT    0.3102
     16 N16          27.051126  -12.691583    0.005569 N.am     1 SUBUNIT   -0.2660
     17 O17          27.190165  -15.015973   -0.161016 O.2      1 SUBUNIT   -0.2533
     18 C18          24.702339  -15.674637   -0.043780 C.3      1 SUBUNIT    0.1425
     19 C19          28.498192  -12.324289   -0.071300 C.2      1 SUBUNIT    0.0715
     20 C20          29.438919  -12.746181   -0.967492 C.2      1 SUBUNIT    0.0635
     21 C21          30.817844  -12.255431   -0.861856 C.2      1 SUBUNIT    0.0224
     22 C22          31.182745  -11.406175    0.085523 C.2      1 SUBUNIT    0.0032
     23 C23          30.208494  -10.948792    1.042615 C.2      1 SUBUNIT    0.0224
     24 C24          28.947914  -11.372974    0.979487 C.2      1 SUBUNIT    0.0635
     25 O25          15.896594  -10.225725   -1.086352 O.3      1 SUBUNIT   -0.3448
     26 C26          14.710175  -10.627996   -0.409072 C.3      1 SUBUNIT    0.1832
     27 C27          13.458998  -10.130417   -1.176499 C.3      1 SUBUNIT    0.1132
     28 N28          12.111950  -10.593615   -0.636214 N.3      1 SUBUNIT   -0.3016
     29 C29          11.073385  -10.005598   -1.512829 C.3      1 SUBUNIT    0.0809
     30 C30          11.251472  -10.464412   -2.974933 C.3      1 SUBUNIT    0.0206
     31 C31          11.782617  -10.130233    0.765242 C.3      1 SUBUNIT    0.0809
     32 C32          12.453109  -10.937391    1.918723 C.3      1 SUBUNIT    0.0206
     33 Cl33         27.820173  -10.796844    2.150800 Cl       1 SUBUNIT   -0.0822
     34 Cl34         29.192156  -13.840485   -2.275088 Cl       1 SUBUNIT   -0.0822
     35 H35          26.405598  -11.931355    0.099698 H        1 SUBUNIT    0.1575
     36 H73          20.203503  -14.303761    0.622910 H        1 SUBUNIT    0.0000
@<TRIPOS>BOND
     1    1    2 2
     2    2    3 1
     3    3    4 2
     4    4    5 1
     5    5    6 2
     6    6    1 1
     7    4    7 1
     8    7    8 1
     9    8    9 2
    10    9   13 1
    11   12   10 1
    12   10   11 2
    13   11    8 1
    14   12   13 2
    15   13   14 1
    16   14   15 1
    17   15   16 1
    18   15   17 2
    19   14   18 1
    20   16   19 1
    21   19   20 2
    22   20   21 1
    23   21   22 2
    24   22   23 1
    25   23   24 2
    26   24   19 1
    27    1   25 1
    28   25   26 1
    29   26   27 1
    30   27   28 1
    31   28   29 1
    32   29   30 1
    33   28   31 1
    34   31   32 1
    35   24   33 1
    36   20   34 1
    37   16   35 1
    38    7   36 1
@<SCITEGIC>ATOM_PROPERTY
Formal Charge
SciTegic.value.StringValue
1 0
2 0
3 0
4 0
5 0
6 0
7 0
8 0
9 0
10 0
11 0
12 0
13 0
14 0
15 0
16 0
17 0
18 0
19 0
20 0
21 0
22 0
23 0
24 0
25 0
26 0
27 0
28 0
29 0
30 0
31 0
32 0
33 0
34 0
35 0
36 0

@<SCITEGIC>ATOM_PROPERTY
pdb_tempFactor
SciTegic.value.DoubleValue
1 0.00
2 0.00
3 0.00
4 0.00
5 0.00
6 0.00
7 0.00
8 0.00
9 0.00
10 0.00
11 0.00
12 0.00
13 0.00
14 0.00
15 0.00
16 0.00
17 0.00
18 0.00
19 0.00
20 0.00
21 0.00
22 0.00
23 0.00
24 0.00
25 0.00
26 0.00
27 0.00
28 0.00
29 0.00
30 0.00
31 0.00
32 0.00
33 0.00
34 0.00
35 0.00
36 0.00

@<SCITEGIC>ATOM_PROPERTY
pdb_occupancy
SciTegic.value.DoubleValue
1 1.00
2 1.00
3 1.00
4 1.00
5 1.00
6 1.00
7 1.00
8 1.00
9 1.00
10 1.00
11 1.00
12 1.00
13 1.00
14 1.00
15 1.00
16 1.00
17 1.00
18 1.00
19 1.00
20 1.00
21 1.00
22 1.00
23 1.00
24 1.00
25 1.00
26 1.00
27 1.00
28 1.00
29 1.00
30 1.00
31 1.00
32 1.00
33 1.00
34 1.00
35 1.00
36 1.00

#	copyright 2023 drugdesign.org
#	Creation time:	2024-01-10T22:36:50Z

@<TRIPOS>MOLECULE
Molecule
   36    39     0 0 0
SMALL
USER_CHARGES


@<TRIPOS>ATOM
      1 C1           16.666815  -11.246067   -0.778356 C.2      1 SUBUNIT    0.0751
      2 C2           16.637787  -12.159285    0.196386 C.2      1 SUBUNIT    0.0349
      3 C3           17.866905  -12.889683    0.559353 C.2      1 SUBUNIT    0.0229
      4 C4           19.009722  -12.652453   -0.088162 C.2      1 SUBUNIT    0.0216
      5 C5           19.030291  -11.653691   -1.157349 C.2      1 SUBUNIT    0.0229
      6 C6           17.924597  -10.985883   -1.479922 C.2      1 SUBUNIT    0.0349
      7 N7           20.177624  -13.376006    0.284092 N.pl3    1 SUBUNIT   -0.0891
      8 C8           21.519266  -12.876966    0.236160 C.2      1 SUBUNIT    0.2063
      9 N9           22.463095  -13.728269    0.154747 N.2      1 SUBUNIT   -0.2015
     10 C10          23.030291  -11.077691    0.195136 C.2      1 SUBUNIT    0.1260
     11 N11          21.822432  -11.489628    0.260214 N.2      1 SUBUNIT   -0.2256
     12 C12          24.116934  -12.049927    0.097786 C.2      1 SUBUNIT    0.0346
     13 C13          23.803913  -13.334431    0.083280 C.2      1 SUBUNIT    0.1388
     14 N14          24.792763  -14.291177   -0.006223 N.am     1 SUBUNIT   -0.2544
     15 C15          26.130230  -13.938932   -0.088812 C.2      1 SUBUNIT    0.2514
     16 C16          26.542150  -12.489257   -0.080104 C.2      1 SUBUNIT    0.0486
     17 C17          25.529787  -11.618575    0.013496 C.2      1 SUBUNIT    0.0273
     18 O18          26.923447  -14.862234   -0.167085 O.2      1 SUBUNIT   -0.2712
     19 C19          24.436523  -15.676580   -0.014223 C.3      1 SUBUNIT    0.1411
     20 C20          28.047892  -11.933957   -0.173785 C.2      1 SUBUNIT    0.0243
     21 C21          28.968945  -12.283549   -1.125734 C.2      1 SUBUNIT    0.0501
     22 C22          30.314775  -11.707118   -1.110409 C.2      1 SUBUNIT    0.0211
     23 C23          30.699760  -10.836886   -0.195866 C.2      1 SUBUNIT    0.0031
     24 C24          29.786245  -10.433202    0.824388 C.2      1 SUBUNIT    0.0211
     25 C25          28.547073  -10.912543    0.880033 C.2      1 SUBUNIT    0.0501
     26 O26          15.510509  -10.516851   -1.147657 O.3      1 SUBUNIT   -0.3448
     27 C27          14.355989  -10.938636   -0.414977 C.3      1 SUBUNIT    0.1832
     28 C28          13.186852   -9.928866   -0.610821 C.3      1 SUBUNIT    0.1132
     29 N29          11.839672  -10.323289   -0.007133 N.3      1 SUBUNIT   -0.3016
     30 C30          10.891012   -9.221559   -0.299937 C.3      1 SUBUNIT    0.0809
     31 C31          10.746374   -8.991675   -1.818428 C.3      1 SUBUNIT    0.0206
     32 C32          11.824492  -10.490100    1.495097 C.3      1 SUBUNIT    0.0809
     33 C33          12.395563  -11.837058    2.029933 C.3      1 SUBUNIT    0.0206
     34 Cl34         27.581678  -10.307679    2.193056 Cl       1 SUBUNIT   -0.0836
     35 Cl35         28.735680  -13.383977   -2.423373 Cl       1 SUBUNIT   -0.0836
     36 H74          20.050381  -14.313845    0.606998 H        1 SUBUNIT    0.0000
@<TRIPOS>BOND
     1    1    2 2
     2    2    3 1
     3    3    4 2
     4    4    5 1
     5    5    6 2
     6    6    1 1
     7    4    7 1
     8    7    8 1
     9    8    9 2
    10    9   13 1
    11   12   10 1
    12   10   11 2
    13   11    8 1
    14   12   13 2
    15   12   17 1
    16   13   14 1
    17   14   15 1
    18   15   16 1
    19   16   17 2
    20   15   18 2
    21   14   19 1
    22   16   20 1
    23   20   21 2
    24   21   22 1
    25   22   23 2
    26   23   24 1
    27   24   25 2
    28   25   20 1
    29    1   26 1
    30   26   27 1
    31   27   28 1
    32   28   29 1
    33   29   30 1
    34   30   31 1
    35   29   32 1
    36   32   33 1
    37   25   34 1
    38   21   35 1
    39    7   36 1
@<SCITEGIC>ATOM_PROPERTY
Formal Charge
SciTegic.value.StringValue
1 0
2 0
3 0
4 0
5 0
6 0
7 0
8 0
9 0
10 0
11 0
12 0
13 0
14 0
15 0
16 0
17 0
18 0
19 0
20 0
21 0
22 0
23 0
24 0
25 0
26 0
27 0
28 0
29 0
30 0
31 0
32 0
33 0
34 0
35 0
36 0

@<SCITEGIC>ATOM_PROPERTY
pdb_tempFactor
SciTegic.value.DoubleValue
1 0.00
2 0.00
3 0.00
4 0.00
5 0.00
6 0.00
7 0.00
8 0.00
9 0.00
10 0.00
11 0.00
12 0.00
13 0.00
14 0.00
15 0.00
16 0.00
17 0.00
18 0.00
19 0.00
20 0.00
21 0.00
22 0.00
23 0.00
24 0.00
25 0.00
26 0.00
27 0.00
28 0.00
29 0.00
30 0.00
31 0.00
32 0.00
33 0.00
34 0.00
35 0.00
36 0.00

@<SCITEGIC>ATOM_PROPERTY
pdb_occupancy
SciTegic.value.DoubleValue
1 1.00
2 1.00
3 1.00
4 1.00
5 1.00
6 1.00
7 1.00
8 1.00
9 1.00
10 1.00
11 1.00
12 1.00
13 1.00
14 1.00
15 1.00
16 1.00
17 1.00
18 1.00
19 1.00
20 1.00
21 1.00
22 1.00
23 1.00
24 1.00
25 1.00
26 1.00
27 1.00
28 1.00
29 1.00
30 1.00
31 1.00
32 1.00
33 1.00
34 1.00
35 1.00
36 1.00

