#	copyright 2023 drugdesign.org
#	Creation time:	2024-01-10T22:36:17Z

@<TRIPOS>MOLECULE
anchore_flavopiridole.sd
   14    13     0 0 0
SMALL
USER_CHARGES


@<TRIPOS>ATOM
      1 C1           17.592106    6.441741  -13.263391 C.3      1 SUBUNIT    0.1111
      2 C2           17.919847    6.181965  -11.762333 C.2      1 SUBUNIT    0.2090
      3 O3           19.052046    5.764437  -11.446378 O.2      1 SUBUNIT   -0.2780
      4 N4           16.962456    6.414465  -10.830168 N.am     1 SUBUNIT   -0.3067
      5 C5           17.266151    6.275456   -9.387831 C.3      1 SUBUNIT    0.2016
      6 C6           16.833141    4.878734   -8.809156 C.2      1 SUBUNIT    0.2294
      7 O7           15.689414    4.429711   -9.038947 O.2      1 SUBUNIT   -0.2759
      8 N8           17.716484    4.246960   -7.981919 N.am     1 SUBUNIT   -0.3051
      9 C9           17.424557    3.064911   -7.120086 C.3      1 SUBUNIT    0.2014
     10 C10          17.825359    3.387882   -5.631382 C.2      1 SUBUNIT    0.2264
     11 O11          18.812647    4.111499   -5.388543 O.2      1 SUBUNIT   -0.2761
     12 N12          17.065136    2.851804   -4.638315 N.am     1 SUBUNIT   -0.0367
     13 H13          16.035280    6.760674  -11.102891 H        1 SUBUNIT    0.1499
     14 H14          18.588585    4.744666   -7.761437 H        1 SUBUNIT    0.1499
@<TRIPOS>BOND
     1    1    2 1
     2    2    3 2
     3    2    4 1
     4    4    5 1
     5    4   13 1
     6    5    6 1
     7    6    7 2
     8    6    8 1
     9    8    9 1
    10    8   14 1
    11    9   10 1
    12   10   11 2
    13   10   12 1
@<SCITEGIC>ATOM_PROPERTY
Formal Charge
SciTegic.value.StringValue
1 0
2 0
3 0
4 0
5 0
6 0
7 0
8 0
9 0
10 0
11 0
12 0
13 0
14 0

@<SCITEGIC>ATOM_PROPERTY
pdb_tempFactor
SciTegic.value.DoubleValue
1 0.00
2 0.00
3 0.00
4 0.00
5 0.00
6 0.00
7 0.00
8 0.00
9 0.00
10 0.00
11 0.00
12 0.00
13 0.00
14 0.00

@<SCITEGIC>ATOM_PROPERTY
pdb_occupancy
SciTegic.value.DoubleValue
1 1.00
2 1.00
3 1.00
4 1.00
5 1.00
6 1.00
7 1.00
8 1.00
9 1.00
10 1.00
11 1.00
12 1.00
13 1.00
14 1.00

#	copyright 2023 drugdesign.org
#	Creation time:	2024-01-10T22:36:17Z

@<TRIPOS>MOLECULE
Molecule
   26    29     0 0 0
SMALL
USER_CHARGES


@<TRIPOS>ATOM
      1 N1           20.513712    5.543631   -7.745587 N.2      1 SUBUNIT   -0.1376
      2 N2           20.487206    6.084495   -8.839849 N.2      1 SUBUNIT   -0.1530
      3 C3           21.334284    7.149899   -9.158237 C.2      1 SUBUNIT    0.0754
      4 C4           21.389429    5.941395   -6.662412 C.2      1 SUBUNIT    0.1406
      5 C5           22.243694    6.968290   -6.943967 C.2      1 SUBUNIT    0.0228
      6 C6           22.176123    7.589839   -8.233646 C.2      1 SUBUNIT    0.0087
      7 C7           23.057611    8.702447   -8.579467 C.2      1 SUBUNIT    0.0106
      8 C8           23.924643    9.173573   -7.692505 C.2      1 SUBUNIT    0.0007
      9 C9           24.008331    8.573289   -6.383278 C.2      1 SUBUNIT    0.0008
     10 C10          23.218977    7.558496   -6.045353 C.2      1 SUBUNIT    0.0120
     11 C11          21.385544    7.897602  -10.485896 C.3      1 SUBUNIT    0.0940
     12 C12          21.173677    7.170671  -11.773053 C.2      1 SUBUNIT   -0.0389
     13 C13          21.397406    5.873878  -11.927128 C.2      1 SUBUNIT    0.0240
     14 C14          21.150822    5.270548  -13.237992 C.2      1 SUBUNIT    0.1110
     15 N15          20.729052    5.976900  -14.214862 N.2      1 SUBUNIT   -0.2646
     16 C16          20.488623    7.352424  -14.070782 C.2      1 SUBUNIT    0.1110
     17 C17          20.695190    7.947674  -12.907873 C.2      1 SUBUNIT    0.0240
     18 N18          21.217846    5.082671   -5.391365 N.pl3    1 SUBUNIT   -0.2410
     19 C19          21.877853    5.138545   -4.044096 C.2      1 SUBUNIT    0.0203
     20 H20          20.527941    4.363538   -5.476408 H        1 SUBUNIT    0.1358
     21 C21          22.790266    6.029554   -3.688417 C.2      1 SUBUNIT    0.0216
     22 C22          23.419487    6.055900   -2.393669 C.2      1 SUBUNIT    0.0219
     23 C23          23.089087    5.155035   -1.486836 C.2      1 SUBUNIT    0.0407
     24 C24          22.077152    4.140568   -1.814740 C.2      1 SUBUNIT    0.0219
     25 C25          21.502060    4.129877   -3.025036 C.2      1 SUBUNIT    0.0216
     26 Cl26         23.857113    5.195123    0.060192 Cl       1 SUBUNIT   -0.0843
@<TRIPOS>BOND
     1    1    2 2
     2    2    3 1
     3    3    6 2
     4    5    4 2
     5    4    1 1
     6    5    6 1
     7    6    7 1
     8    7    8 2
     9    8    9 1
    10    9   10 2
    11   10    5 1
    12    3   11 1
    13   11   12 1
    14   12   13 2
    15   13   14 1
    16   14   15 2
    17   15   16 1
    18   16   17 2
    19   17   12 1
    20    4   18 1
    21   18   19 1
    22   18   20 1
    23   19   21 2
    24   21   22 1
    25   22   23 2
    26   23   24 1
    27   24   25 2
    28   25   19 1
    29   23   26 1
@<SCITEGIC>ATOM_PROPERTY
Formal Charge
SciTegic.value.StringValue
1 0
2 0
3 0
4 0
5 0
6 0
7 0
8 0
9 0
10 0
11 0
12 0
13 0
14 0
15 0
16 0
17 0
18 0
19 0
20 0
21 0
22 0
23 0
24 0
25 0
26 0

@<SCITEGIC>ATOM_PROPERTY
pdb_tempFactor
SciTegic.value.DoubleValue
1 0.00
2 0.00
3 0.00
4 0.00
5 0.00
6 0.00
7 0.00
8 0.00
9 0.00
10 0.00
11 0.00
12 0.00
13 0.00
14 0.00
15 0.00
16 0.00
17 0.00
18 0.00
19 0.00
20 0.00
21 0.00
22 0.00
23 0.00
24 0.00
25 0.00
26 0.00

@<SCITEGIC>ATOM_PROPERTY
pdb_occupancy
SciTegic.value.DoubleValue
1 1.00
2 1.00
3 1.00
4 1.00
5 1.00
6 1.00
7 1.00
8 1.00
9 1.00
10 1.00
11 1.00
12 1.00
13 1.00
14 1.00
15 1.00
16 1.00
17 1.00
18 1.00
19 1.00
20 1.00
21 1.00
22 1.00
23 1.00
24 1.00
25 1.00
26 1.00

