#	copyright 2023 drugdesign.org
#	Creation time:	2024-01-10T22:36:29Z

@<TRIPOS>MOLECULE
estazolam_2b_sup.sd
   31    33     0 0 0
SMALL
USER_CHARGES


@<TRIPOS>ATOM
      1 C1           -0.951200    1.746000   -0.030400 C.2      1 SUBUNIT   -0.0057
      2 C2           -0.857300    0.346200   -0.009900 C.2      1 SUBUNIT   -0.1227
      3 C3           -1.840400   -0.368300   -0.706100 C.2      1 SUBUNIT   -0.0605
      4 C4           -2.857200    0.266300   -1.418400 C.2      1 SUBUNIT    0.0391
      5 C5           -2.918800    1.657000   -1.441300 C.2      1 SUBUNIT   -0.0429
      6 C6           -1.966000    2.391800   -0.740300 C.2      1 SUBUNIT   -0.0519
      7 Cl7          -4.027200   -0.681000   -2.261500 Cl       1 SUBUNIT   -0.0844
      8 O8            0.170100   -0.314000    0.702300 O.3      1 SUBUNIT    1.3553
      9 C9            0.704100   -1.569600    0.360300 C.2      1 SUBUNIT   -0.1157
     10 C10           0.866300   -1.980700   -0.967500 C.2      1 SUBUNIT   -0.0785
     11 C11           1.411000   -3.222400   -1.288800 C.2      1 SUBUNIT   -0.0637
     12 C12           1.819000   -4.083400   -0.273600 C.2      1 SUBUNIT   -0.0609
     13 C13           1.684000   -3.686500    1.054800 C.2      1 SUBUNIT   -0.0451
     14 C14           1.136800   -2.440200    1.364500 C.2      1 SUBUNIT    0.0230
     15 C15           0.012800    2.571800    0.726800 C.2      1 SUBUNIT    0.1163
     16 N16           0.916400    2.148800    1.610600 N.pl3    1 SUBUNIT   -0.2322
     17 C17           1.560300    3.190500    2.094600 C.2      1 SUBUNIT    0.0792
     18 N18           1.030000    4.264300    1.496100 N.2      1 SUBUNIT    0.0580
     19 N19           0.064200    3.856600    0.661400 N.2      1 SUBUNIT   -0.2412
     20 H20          -1.814000   -1.470100   -0.686300 H        1 SUBUNIT    0.0622
     21 H21          -3.715700    2.179900   -1.997200 H        1 SUBUNIT    0.0638
     22 H22          -2.037600    3.492200   -0.754800 H        1 SUBUNIT    0.0630
     23 H23           0.565500   -1.309400   -1.788700 H        1 SUBUNIT    0.0607
     24 H24           1.523200   -3.521700   -2.344700 H        1 SUBUNIT    0.0622
     25 H25           2.252500   -5.067400   -0.520000 H        1 SUBUNIT    0.0623
     26 H26           2.018900   -4.370800    1.853100 H        1 SUBUNIT    0.0638
     27 Cl27          1.012500   -2.001500    3.031600 Cl       1 SUBUNIT   -0.0860
     28 H31           1.078500    1.178900    1.881000 H        1 SUBUNIT    0.1368
     29 N32           2.518000    3.044600    2.989400 N.pl3    1 SUBUNIT   -0.2917
     30 H33           2.743900    2.102800    3.310200 H        1 SUBUNIT    0.1253
     31 H34           2.999400    3.867500    3.351900 H        1 SUBUNIT    0.1253
@<TRIPOS>BOND
     1    1    2 2
     2    1    6 1
     3    1   15 1
     4    2    3 1
     5    2    8 1
     6    3    4 2
     7    3   20 1
     8    4    5 1
     9    4    7 1
    10    5    6 2
    11    5   21 1
    12    6   22 1
    13    8    9 1
    14    9   10 2
    15    9   14 1
    16   10   11 1
    17   10   23 1
    18   11   12 2
    19   11   24 1
    20   12   13 1
    21   12   25 1
    22   13   14 2
    23   13   26 1
    24   14   27 1
    25   15   16 1
    26   15   19 2
    27   16   17 1
    28   16   28 1
    29   17   18 2
    30   17   29 1
    31   18   19 1
    32   29   30 1
    33   29   31 1
@<SCITEGIC>ATOM_PROPERTY
Formal Charge
SciTegic.value.StringValue
1 0
2 0
3 0
4 0
5 0
6 0
7 0
8 0
9 0
10 0
11 0
12 0
13 0
14 0
15 0
16 0
17 0
18 0
19 0
20 0
21 0
22 0
23 0
24 0
25 0
26 0
27 0
28 0
29 0
30 0
31 0

@<SCITEGIC>ATOM_PROPERTY
pdb_tempFactor
SciTegic.value.DoubleValue
1 0.00
2 0.00
3 0.00
4 0.00
5 0.00
6 0.00
7 0.00
8 0.00
9 0.00
10 0.00
11 0.00
12 0.00
13 0.00
14 0.00
15 0.00
16 0.00
17 0.00
18 0.00
19 0.00
20 0.00
21 0.00
22 0.00
23 0.00
24 0.00
25 0.00
26 0.00
27 0.00
28 0.00
29 0.00
30 0.00
31 0.00

@<SCITEGIC>ATOM_PROPERTY
pdb_occupancy
SciTegic.value.DoubleValue
1 1.00
2 1.00
3 1.00
4 1.00
5 1.00
6 1.00
7 1.00
8 1.00
9 1.00
10 1.00
11 1.00
12 1.00
13 1.00
14 1.00
15 1.00
16 1.00
17 1.00
18 1.00
19 1.00
20 1.00
21 1.00
22 1.00
23 1.00
24 1.00
25 1.00
26 1.00
27 1.00
28 1.00
29 1.00
30 1.00
31 1.00

#	copyright 2023 drugdesign.org
#	Creation time:	2024-01-10T22:36:29Z

@<TRIPOS>MOLECULE
estazolam_2b_sup.sd
   33    36     0 0 0
SMALL
USER_CHARGES


@<TRIPOS>ATOM
      1 C1           -0.902735    1.831896   -0.104714 C.2      1 SUBUNIT    0.0368
      2 C2           -0.927335    0.445696    0.104986 C.2      1 SUBUNIT    0.0207
      3 C3           -1.964036   -0.319504   -0.440014 C.2      1 SUBUNIT   -0.0325
      4 C4           -2.952834    0.266396   -1.228414 C.2      1 SUBUNIT    0.0414
      5 C5           -2.912534    1.637596   -1.466814 C.2      1 SUBUNIT   -0.0419
      6 C6           -1.897936    2.407897   -0.902214 C.2      1 SUBUNIT   -0.0411
      7 Cl7          -4.208536   -0.709404   -1.896814 Cl       1 SUBUNIT   -0.0843
      8 C8            0.105465   -0.271704    0.897986 C.2      1 SUBUNIT    0.0741
      9 N9            0.528665    0.087796    2.056287 N.2      1 SUBUNIT   -0.2765
     10 C10           0.630565   -1.539804    0.333186 C.2      1 SUBUNIT    0.0004
     11 C11           0.662765   -1.755604   -1.047314 C.2      1 SUBUNIT   -0.0528
     12 C12           1.138964   -2.961403   -1.561014 C.2      1 SUBUNIT   -0.0616
     13 C13           1.581864   -3.963103   -0.699314 C.2      1 SUBUNIT   -0.0622
     14 C14           1.547564   -3.755303    0.678286 C.2      1 SUBUNIT   -0.0616
     15 C15           1.072464   -2.549203    1.192586 C.2      1 SUBUNIT   -0.0528
     16 N16           0.011865    2.624597    0.460986 N.pl3    1 SUBUNIT   -0.2049
     17 C17           0.461265    2.470797    1.710986 C.2      1 SUBUNIT    0.1148
     18 N18           1.253264    3.429197    2.039487 N.2      1 SUBUNIT   -0.2455
     19 C19           1.325464    4.234996    0.973386 C.2      1 SUBUNIT    0.0400
     20 C20           0.553765    3.751197   -0.008514 C.2      1 SUBUNIT    0.0097
     21 H21          -2.005836   -1.405604   -0.251314 H        1 SUBUNIT    0.0646
     22 H22          -3.686134    2.123397   -2.085613 H        1 SUBUNIT    0.0639
     23 H23          -1.918536    3.495197   -1.085614 H        1 SUBUNIT    0.0640
     24 H24           0.331265   -0.978105   -1.755314 H        1 SUBUNIT    0.0630
     25 H25           1.166864   -3.123203   -2.651913 H        1 SUBUNIT    0.0623
     26 H26           1.957866   -4.917104   -1.106114 H        1 SUBUNIT    0.0622
     27 H27           1.894666   -4.548004    1.362486 H        1 SUBUNIT    0.0623
     28 Cl28          1.032726   -2.334395    2.938976 Cl       1 SUBUNIT    0.0630
     29 H29           1.943866    5.161196    0.950386 H        1 SUBUNIT    0.0851
     30 H30           0.397265    4.183996   -1.023614 H        1 SUBUNIT    0.0777
     31 C31           0.084965    1.330396    2.632787 C.3      1 SUBUNIT    0.0932
     32 H32          -1.014135    1.317996    2.819787 H        1 SUBUNIT    0.0594
     33 H33           0.600465    1.456296    3.612087 H        1 SUBUNIT    0.0594
@<TRIPOS>BOND
     1    1    2 2
     2    1    6 1
     3    1   16 1
     4    2    3 1
     5    2    8 1
     6    3    4 2
     7    3   21 1
     8    4    5 1
     9    4    7 1
    10    5    6 2
    11    5   22 1
    12    6   23 1
    13    8    9 2
    14    8   10 1
    15    9   31 1
    16   10   11 2
    17   10   15 1
    18   11   12 1
    19   11   24 1
    20   12   13 2
    21   12   25 1
    22   13   14 1
    23   13   26 1
    24   14   15 2
    25   14   27 1
    26   15   28 1
    27   16   17 1
    28   16   20 1
    29   17   18 2
    30   17   31 1
    31   18   19 1
    32   19   20 2
    33   19   29 1
    34   20   30 1
    35   31   32 1
    36   31   33 1
@<SCITEGIC>ATOM_PROPERTY
Formal Charge
SciTegic.value.StringValue
1 0
2 0
3 0
4 0
5 0
6 0
7 0
8 0
9 0
10 0
11 0
12 0
13 0
14 0
15 0
16 0
17 0
18 0
19 0
20 0
21 0
22 0
23 0
24 0
25 0
26 0
27 0
28 0
29 0
30 0
31 0
32 0
33 0

@<SCITEGIC>ATOM_PROPERTY
pdb_tempFactor
SciTegic.value.DoubleValue
1 0.00
2 0.00
3 0.00
4 0.00
5 0.00
6 0.00
7 0.00
8 0.00
9 0.00
10 0.00
11 0.00
12 0.00
13 0.00
14 0.00
15 0.00
16 0.00
17 0.00
18 0.00
19 0.00
20 0.00
21 0.00
22 0.00
23 0.00
24 0.00
25 0.00
26 0.00
27 0.00
28 0.00
29 0.00
30 0.00
31 0.00
32 0.00
33 0.00

@<SCITEGIC>ATOM_PROPERTY
pdb_occupancy
SciTegic.value.DoubleValue
1 1.00
2 1.00
3 1.00
4 1.00
5 1.00
6 1.00
7 1.00
8 1.00
9 1.00
10 1.00
11 1.00
12 1.00
13 1.00
14 1.00
15 1.00
16 1.00
17 1.00
18 1.00
19 1.00
20 1.00
21 1.00
22 1.00
23 1.00
24 1.00
25 1.00
26 1.00
27 1.00
28 1.00
29 1.00
30 1.00
31 1.00
32 1.00
33 1.00

