#	copyright 2023 drugdesign.org
#	Creation time:	2024-01-10T22:36:58Z

@<TRIPOS>MOLECULE
Molecule
   38    40     0 0 0
SMALL
USER_CHARGES


@<TRIPOS>ATOM
      1 C1           -4.584886    1.332864   -0.051306 C.ar     1 SUBUNIT    0.0320
      2 C2           -3.261840    0.929496    0.011010 C.ar     1 SUBUNIT    0.0253
      3 C3           -2.964625   -0.426634    0.060302 C.ar     1 SUBUNIT   -0.0176
      4 C4           -3.963759   -1.396269    0.049253 C.ar     1 SUBUNIT    0.1056
      5 C5           -5.305171   -0.983819   -0.007163 C.ar     1 SUBUNIT    0.1064
      6 C6           -5.595848    0.380102   -0.057415 C.ar     1 SUBUNIT   -0.0100
      7 C13          -2.250006    1.886300    0.023150 C.ar     1 SUBUNIT    0.0758
      8 N14          -2.607169    3.170402   -0.032948 N.ar     1 SUBUNIT   -0.2455
      9 C15          -3.891443    3.523430   -0.095880 C.ar     1 SUBUNIT    0.0288
     10 N16          -4.871319    2.626592   -0.102064 N.ar     1 SUBUNIT   -0.2550
     11 N22          -0.863971    1.415501    0.111177 N.pl3    1 SUBUNIT   -0.2487
     12 H24          -0.722958    0.436135    0.226926 H        1 SUBUNIT    0.1352
     13 C26           0.328958    2.229182    0.072679 C.ar     1 SUBUNIT    0.0212
     14 C28           0.331185    3.584890   -0.241173 C.ar     1 SUBUNIT   -0.0437
     15 C29           1.524921    4.301049   -0.261755 C.ar     1 SUBUNIT    0.0032
     16 C30           2.727830    3.669492    0.036752 C.ar     1 SUBUNIT   -0.0434
     17 C31           2.736487    2.316055    0.352884 C.ar     1 SUBUNIT    0.0422
     18 C32           1.540146    1.605307    0.364939 C.ar     1 SUBUNIT   -0.0251
     19 H39          -0.529689    4.047440   -0.453171 H        1 SUBUNIT    0.0639
     20 H41           3.583212    4.187332    0.023942 H        1 SUBUNIT    0.0638
     21 Cl45          4.236380    1.514596    0.734705 Cl       1 SUBUNIT   -0.0842
     22 H45           1.549841    0.630345    0.587103 H        1 SUBUNIT    0.0655
     23 H47          -2.007844   -0.714001    0.104895 H        1 SUBUNIT    0.0659
     24 O51          -3.494611   -2.770276    0.099640 O.3      1 SUBUNIT   -0.3465
     25 O53          -6.385780   -1.899415   -0.014445 O.3      1 SUBUNIT   -0.3465
     26 H53          -6.549794    0.677239   -0.098597 H        1 SUBUNIT    0.0668
     27 H55          -1.925561    3.881170   -0.022360 H        1 SUBUNIT    0.1356
     28 H57          -4.124509    4.494896   -0.139849 H        1 SUBUNIT    0.0889
     29 H59          -5.825154    2.927964   -0.145328 H        1 SUBUNIT    0.1346
     30 C63          -4.458889   -3.834835    0.085762 C.3      1 SUBUNIT    0.0424
     31 C65          -7.654019   -1.229161   -0.067785 C.3      1 SUBUNIT    0.0424
     32 H65          -3.985343   -4.714685    0.124928 H        1 SUBUNIT    0.0535
     33 H67          -4.999283   -3.784797   -0.754194 H        1 SUBUNIT    0.0535
     34 H69          -5.064288   -3.747178    0.876878 H        1 SUBUNIT    0.0535
     35 H71          -8.389639   -1.906485   -0.071354 H        1 SUBUNIT    0.0535
     36 H73          -7.705342   -0.677651   -0.900406 H        1 SUBUNIT    0.0535
     37 H75          -7.751827   -0.635763    0.731195 H        1 SUBUNIT    0.0535
     38 H77           1.517549    5.274099   -0.492229 H        1 SUBUNIT    0.0000
@<TRIPOS>BOND
     1    1    2 ar
     2    2    3 ar
     3    3    4 ar
     4    4    5 ar
     5    5    6 ar
     6    6    1 ar
     7    7    8 ar
     8    8    9 ar
     9    9   10 ar
    10    1   10 ar
    11    2    7 ar
    12    7   11 1
    13   11   12 1
    14   11   13 1
    15   14   15 ar
    16   15   16 ar
    17   16   17 ar
    18   17   18 ar
    19   13   14 ar
    20   13   18 ar
    21   14   19 1
    22   16   20 1
    23   17   21 1
    24   18   22 1
    25    3   23 1
    26    4   24 1
    27    5   25 1
    28    6   26 1
    29    8   27 1
    30    9   28 1
    31   10   29 1
    32   24   30 1
    33   25   31 1
    34   30   32 1
    35   30   33 1
    36   30   34 1
    37   31   35 1
    38   31   36 1
    39   31   37 1
    40   15   38 1
@<SCITEGIC>ATOM_PROPERTY
Formal Charge
SciTegic.value.StringValue
1 0
2 0
3 0
4 0
5 0
6 0
7 0
8 0
9 0
10 0
11 0
12 0
13 0
14 0
15 0
16 0
17 0
18 0
19 0
20 0
21 0
22 0
23 0
24 0
25 0
26 0
27 0
28 0
29 0
30 0
31 0
32 0
33 0
34 0
35 0
36 0
37 0
38 0

@<SCITEGIC>ATOM_PROPERTY
pdb_tempFactor
SciTegic.value.DoubleValue
1 0.00
2 0.00
3 0.00
4 0.00
5 0.00
6 0.00
7 0.00
8 0.00
9 0.00
10 0.00
11 0.00
12 0.00
13 0.00
14 0.00
15 0.00
16 0.00
17 0.00
18 0.00
19 0.00
20 0.00
21 0.00
22 0.00
23 0.00
24 0.00
25 0.00
26 0.00
27 0.00
28 0.00
29 0.00
30 0.00
31 0.00
32 0.00
33 0.00
34 0.00
35 0.00
36 0.00
37 0.00
38 0.00

@<SCITEGIC>ATOM_PROPERTY
pdb_occupancy
SciTegic.value.DoubleValue
1 1.00
2 1.00
3 1.00
4 1.00
5 1.00
6 1.00
7 1.00
8 1.00
9 1.00
10 1.00
11 1.00
12 1.00
13 1.00
14 1.00
15 1.00
16 1.00
17 1.00
18 1.00
19 1.00
20 1.00
21 1.00
22 1.00
23 1.00
24 1.00
25 1.00
26 1.00
27 1.00
28 1.00
29 1.00
30 1.00
31 1.00
32 1.00
33 1.00
34 1.00
35 1.00
36 1.00
37 1.00
38 1.00

#	copyright 2023 drugdesign.org
#	Creation time:	2024-01-10T22:36:58Z

@<TRIPOS>MOLECULE
Molecule
   30    32     0 0 0
SMALL
USER_CHARGES


@<TRIPOS>ATOM
      1 C1           -5.820583    0.324361    0.063248 C.2      1 SUBUNIT    0.0671
      2 C2           -5.497872   -0.955732    0.000926 C.2      1 SUBUNIT    0.0765
      3 C3           -4.115453   -1.347647    0.010409 C.2      1 SUBUNIT    0.0677
      4 C4           -4.826864    1.393983    0.156040 C.2      1 SUBUNIT    0.0910
      5 C5           -3.491832    1.027133    0.187211 C.2      1 SUBUNIT    0.0838
      6 C6           -3.151070   -0.435894    0.096466 C.2      1 SUBUNIT    0.0976
      7 O7           -1.805481   -0.918099    0.084853 O.3      1 SUBUNIT   -0.3164
      8 C8           -0.767571    0.046100    0.164576 C.2      1 SUBUNIT    0.1487
      9 C9           -0.957154    1.362547    0.267288 C.2      1 SUBUNIT    0.0533
     10 C10          -2.311383    1.920542    0.310354 C.2      1 SUBUNIT    0.2005
     11 O11          -2.432116    3.123535    0.472651 O.2      1 SUBUNIT   -0.2883
     12 C12           0.238745    2.277188    0.343008 C.2      1 SUBUNIT   -0.0122
     13 C13           1.473318    1.776826    0.328634 C.2      1 SUBUNIT    0.0114
     14 C14           2.633658    2.687773    0.405439 C.2      1 SUBUNIT    0.0336
     15 C15           2.453442    4.007699    0.486701 C.2      1 SUBUNIT    0.0713
     16 C16           1.115350    4.555857    0.497710 C.2      1 SUBUNIT    0.0336
     17 C17           0.072350    3.741475    0.430092 C.2      1 SUBUNIT    0.0114
     18 O18          -6.503672   -1.917194   -0.079201 O.3      1 SUBUNIT   -0.1425
     19 O19           3.543880    4.864631    0.561872 O.3      1 SUBUNIT   -0.1427
     20 H41          -7.397062   -1.470014   -0.036750 H        1 SUBUNIT    0.0000
     21 H43           3.222405    5.809928    0.616498 H        1 SUBUNIT    0.0000
     22 O45          -5.238844    2.835083    0.215247 O.3      1 SUBUNIT    0.0000
     23 H47          -4.425258    3.412242    0.285130 H        1 SUBUNIT    0.0000
     24 H49          -6.788941    0.573344    0.046183 H        1 SUBUNIT    0.0000
     25 H51          -3.875856   -2.316739   -0.048353 H        1 SUBUNIT    0.0000
     26 H53           0.175525   -0.285659    0.142109 H        1 SUBUNIT    0.0000
     27 H55           1.613945    0.788740    0.266116 H        1 SUBUNIT    0.0000
     28 H57           3.560672    2.312853    0.396483 H        1 SUBUNIT    0.0000
     29 H59           0.977863    5.544640    0.556066 H        1 SUBUNIT    0.0000
     30 H61          -0.849857    4.128086    0.438246 H        1 SUBUNIT    0.0000
@<TRIPOS>BOND
     1    1    2 2
     2    2    3 1
     3    3    6 2
     4    5    4 2
     5    4    1 1
     6    5    6 1
     7    5   10 1
     8    6    7 1
     9    7    8 1
    10    8    9 2
    11    9   10 1
    12   10   11 2
    13    9   12 1
    14   12   13 2
    15   13   14 1
    16   14   15 2
    17   15   16 1
    18   16   17 2
    19   17   12 1
    20    2   18 1
    21   15   19 1
    22   18   20 1
    23   19   21 1
    24    4   22 1
    25   22   23 1
    26    1   24 1
    27    3   25 1
    28    8   26 1
    29   13   27 1
    30   14   28 1
    31   16   29 1
    32   17   30 1
@<SCITEGIC>ATOM_PROPERTY
Formal Charge
SciTegic.value.StringValue
1 0
2 0
3 0
4 0
5 0
6 0
7 0
8 0
9 0
10 0
11 0
12 0
13 0
14 0
15 0
16 0
17 0
18 0
19 0
20 0
21 0
22 0
23 0
24 0
25 0
26 0
27 0
28 0
29 0
30 0

@<SCITEGIC>ATOM_PROPERTY
pdb_tempFactor
SciTegic.value.DoubleValue
1 0.00
2 0.00
3 0.00
4 0.00
5 0.00
6 0.00
7 0.00
8 0.00
9 0.00
10 0.00
11 0.00
12 0.00
13 0.00
14 0.00
15 0.00
16 0.00
17 0.00
18 0.00
19 0.00
20 0.00
21 0.00
22 0.00
23 0.00
24 0.00
25 0.00
26 0.00
27 0.00
28 0.00
29 0.00
30 0.00

@<SCITEGIC>ATOM_PROPERTY
pdb_occupancy
SciTegic.value.DoubleValue
1 1.00
2 1.00
3 1.00
4 1.00
5 1.00
6 1.00
7 1.00
8 1.00
9 1.00
10 1.00
11 1.00
12 1.00
13 1.00
14 1.00
15 1.00
16 1.00
17 1.00
18 1.00
19 1.00
20 1.00
21 1.00
22 1.00
23 1.00
24 1.00
25 1.00
26 1.00
27 1.00
28 1.00
29 1.00
30 1.00

