#	copyright 2023 drugdesign.org
#	Creation time:	2024-01-11T10:58:42Z

@<TRIPOS>MOLECULE
b123.sd
   21    21     0 0 0
SMALL
USER_CHARGES


@<TRIPOS>ATOM
      1 H1            0.000000    0.000000    0.000000 H        1 SUBUNIT    0.0840
      2 C2            1.090000    0.000000    0.000000 C.2      1 SUBUNIT    0.0297
      3 N3            1.759000    1.158700    0.000000 N.2      1 SUBUNIT   -0.2610
      4 C4            3.097000    1.158700    0.000000 C.2      1 SUBUNIT    0.0441
      5 C5            3.794500   -0.049400    0.000000 C.2      1 SUBUNIT   -0.0101
      6 C6            3.097000   -1.257500    0.000000 C.2      1 SUBUNIT    0.0779
      7 C7            1.702000   -1.257500    0.000000 C.2      1 SUBUNIT   -0.0134
      8 C8            3.857000    2.475100    0.000000 C.3      1 SUBUNIT    0.0033
      9 C9            3.535400    3.335300    1.227400 C.3      1 SUBUNIT    0.0279
     10 Cl10          4.427900    4.881200    1.227400 Cl       1 SUBUNIT   -0.1262
     11 O11           3.786500   -2.451700    0.000400 O.3      1 SUBUNIT   -0.3492
     12 C12           2.897500   -3.569300    0.000300 C.3      1 SUBUNIT    0.0422
     13 H13           2.253100   -3.543300    0.901300 H        1 SUBUNIT    0.0535
     14 H14           2.253600   -3.543600   -0.901000 H        1 SUBUNIT    0.0535
     15 H15           3.474800   -4.515000    0.000700 H        1 SUBUNIT    0.0535
     16 H16           4.884500   -0.049400    0.000000 H        1 SUBUNIT    0.0669
     17 H17           1.121400   -2.180000    0.000000 H        1 SUBUNIT    0.0666
     18 H18           3.618800    3.041000   -0.922300 H        1 SUBUNIT    0.0344
     19 H19           4.946100    2.274700   -0.037500 H        1 SUBUNIT    0.0344
     20 H20           3.773600    2.769500    2.149800 H        1 SUBUNIT    0.0439
     21 H21           2.446300    3.535800    1.264900 H        1 SUBUNIT    0.0439
@<TRIPOS>BOND
     1    1    2 1
     2    2    3 2
     3    2    7 1
     4    3    4 1
     5    4    5 2
     6    4    8 1
     7    5    6 1
     8    5   16 1
     9    6    7 2
    10    6   11 1
    11    7   17 1
    12    8    9 1
    13    8   18 1
    14    8   19 1
    15    9   10 1
    16    9   20 1
    17    9   21 1
    18   11   12 1
    19   12   13 1
    20   12   14 1
    21   12   15 1
@<SCITEGIC>ATOM_PROPERTY
Formal Charge
SciTegic.value.StringValue
1 0
2 0
3 0
4 0
5 0
6 0
7 0
8 0
9 0
10 0
11 0
12 0
13 0
14 0
15 0
16 0
17 0
18 0
19 0
20 0
21 0

@<SCITEGIC>ATOM_PROPERTY
pdb_tempFactor
SciTegic.value.DoubleValue
1 0.00
2 0.00
3 0.00
4 0.00
5 0.00
6 0.00
7 0.00
8 0.00
9 0.00
10 0.00
11 0.00
12 0.00
13 0.00
14 0.00
15 0.00
16 0.00
17 0.00
18 0.00
19 0.00
20 0.00
21 0.00

@<SCITEGIC>ATOM_PROPERTY
pdb_occupancy
SciTegic.value.DoubleValue
1 1.00
2 1.00
3 1.00
4 1.00
5 1.00
6 1.00
7 1.00
8 1.00
9 1.00
10 1.00
11 1.00
12 1.00
13 1.00
14 1.00
15 1.00
16 1.00
17 1.00
18 1.00
19 1.00
20 1.00
21 1.00

#	copyright 2023 drugdesign.org
#	Creation time:	2024-01-11T10:58:42Z

@<TRIPOS>MOLECULE
b123.sd
   21    21     0 0 0
SMALL
USER_CHARGES


@<TRIPOS>ATOM
      1 H1            0.000000    0.000000    0.000000 H        1 SUBUNIT    0.0840
      2 C2            1.090000    0.000000    0.000000 C.2      1 SUBUNIT    0.0297
      3 N3            1.759000    1.158700    0.000000 N.2      1 SUBUNIT   -0.2610
      4 C4            3.097000    1.158700    0.000000 C.2      1 SUBUNIT    0.0441
      5 C5            3.794500   -0.049400    0.000000 C.2      1 SUBUNIT   -0.0101
      6 C6            3.097000   -1.257500    0.000000 C.2      1 SUBUNIT    0.0779
      7 C7            1.702000   -1.257500    0.000000 C.2      1 SUBUNIT   -0.0134
      8 C8            3.857000    2.475100    0.000000 C.3      1 SUBUNIT    0.0033
      9 C9            3.535400    3.335300   -1.227400 C.3      1 SUBUNIT    0.0279
     10 Cl10          4.427900    4.881200   -1.227400 Cl       1 SUBUNIT   -0.1262
     11 O11           3.786500   -2.451700    0.000400 O.3      1 SUBUNIT   -0.3492
     12 C12           2.897500   -3.569300    0.000300 C.3      1 SUBUNIT    0.0422
     13 H13           2.253100   -3.543300    0.901300 H        1 SUBUNIT    0.0535
     14 H14           2.253600   -3.543600   -0.901000 H        1 SUBUNIT    0.0535
     15 H15           3.474800   -4.515000    0.000700 H        1 SUBUNIT    0.0535
     16 H16           4.884500   -0.049400    0.000000 H        1 SUBUNIT    0.0669
     17 H17           1.121400   -2.180000    0.000000 H        1 SUBUNIT    0.0666
     18 H18           4.946100    2.274700    0.037500 H        1 SUBUNIT    0.0344
     19 H19           3.618800    3.041000    0.922300 H        1 SUBUNIT    0.0344
     20 H20           2.446300    3.535800   -1.264900 H        1 SUBUNIT    0.0439
     21 H21           3.773600    2.769500   -2.149800 H        1 SUBUNIT    0.0439
@<TRIPOS>BOND
     1    1    2 1
     2    2    3 2
     3    2    7 1
     4    3    4 1
     5    4    5 2
     6    4    8 1
     7    5    6 1
     8    5   16 1
     9    6    7 2
    10    6   11 1
    11    7   17 1
    12    8    9 1
    13    8   18 1
    14    8   19 1
    15    9   10 1
    16    9   20 1
    17    9   21 1
    18   11   12 1
    19   12   13 1
    20   12   14 1
    21   12   15 1
@<SCITEGIC>ATOM_PROPERTY
Formal Charge
SciTegic.value.StringValue
1 0
2 0
3 0
4 0
5 0
6 0
7 0
8 0
9 0
10 0
11 0
12 0
13 0
14 0
15 0
16 0
17 0
18 0
19 0
20 0
21 0

@<SCITEGIC>ATOM_PROPERTY
pdb_tempFactor
SciTegic.value.DoubleValue
1 0.00
2 0.00
3 0.00
4 0.00
5 0.00
6 0.00
7 0.00
8 0.00
9 0.00
10 0.00
11 0.00
12 0.00
13 0.00
14 0.00
15 0.00
16 0.00
17 0.00
18 0.00
19 0.00
20 0.00
21 0.00

@<SCITEGIC>ATOM_PROPERTY
pdb_occupancy
SciTegic.value.DoubleValue
1 1.00
2 1.00
3 1.00
4 1.00
5 1.00
6 1.00
7 1.00
8 1.00
9 1.00
10 1.00
11 1.00
12 1.00
13 1.00
14 1.00
15 1.00
16 1.00
17 1.00
18 1.00
19 1.00
20 1.00
21 1.00

#	copyright 2023 drugdesign.org
#	Creation time:	2024-01-11T10:58:42Z

@<TRIPOS>MOLECULE
b123.sd
   21    21     0 0 0
SMALL
USER_CHARGES


@<TRIPOS>ATOM
      1 H1            0.000000    0.000000    0.000000 H        1 SUBUNIT    0.0840
      2 C2            1.090000    0.000000    0.000000 C.2      1 SUBUNIT    0.0297
      3 N3            1.759000    1.158700    0.000000 N.2      1 SUBUNIT   -0.2610
      4 C4            3.097000    1.158700    0.000000 C.2      1 SUBUNIT    0.0441
      5 C5            3.794500   -0.049400    0.000000 C.2      1 SUBUNIT   -0.0101
      6 C6            3.097000   -1.257500    0.000000 C.2      1 SUBUNIT    0.0779
      7 C7            1.702000   -1.257500    0.000000 C.2      1 SUBUNIT   -0.0134
      8 C8            3.857000    2.475100    0.000000 C.3      1 SUBUNIT    0.0033
      9 C9            3.535400    3.335300   -1.227400 C.3      1 SUBUNIT    0.0279
     10 Cl10          3.947000    2.516100   -2.759000 Cl       1 SUBUNIT   -0.1262
     11 O11           3.786500   -2.451700    0.000400 O.3      1 SUBUNIT   -0.3492
     12 C12           2.897500   -3.569300    0.000300 C.3      1 SUBUNIT    0.0422
     13 H13           2.253100   -3.543300    0.901300 H        1 SUBUNIT    0.0535
     14 H14           2.253600   -3.543600   -0.901000 H        1 SUBUNIT    0.0535
     15 H15           3.474800   -4.515000    0.000700 H        1 SUBUNIT    0.0535
     16 H16           4.884500   -0.049400    0.000000 H        1 SUBUNIT    0.0669
     17 H17           1.121400   -2.180000    0.000000 H        1 SUBUNIT    0.0666
     18 H18           4.946100    2.274700    0.037500 H        1 SUBUNIT    0.0344
     19 H19           3.618800    3.041000    0.922300 H        1 SUBUNIT    0.0344
     20 H20           4.083900    4.295700   -1.161400 H        1 SUBUNIT    0.0439
     21 H21           2.458900    3.597800   -1.224800 H        1 SUBUNIT    0.0439
@<TRIPOS>BOND
     1    1    2 1
     2    2    3 2
     3    2    7 1
     4    3    4 1
     5    4    5 2
     6    4    8 1
     7    5    6 1
     8    5   16 1
     9    6    7 2
    10    6   11 1
    11    7   17 1
    12    8    9 1
    13    8   18 1
    14    8   19 1
    15    9   10 1
    16    9   20 1
    17    9   21 1
    18   11   12 1
    19   12   13 1
    20   12   14 1
    21   12   15 1
@<SCITEGIC>ATOM_PROPERTY
Formal Charge
SciTegic.value.StringValue
1 0
2 0
3 0
4 0
5 0
6 0
7 0
8 0
9 0
10 0
11 0
12 0
13 0
14 0
15 0
16 0
17 0
18 0
19 0
20 0
21 0

@<SCITEGIC>ATOM_PROPERTY
pdb_tempFactor
SciTegic.value.DoubleValue
1 0.00
2 0.00
3 0.00
4 0.00
5 0.00
6 0.00
7 0.00
8 0.00
9 0.00
10 0.00
11 0.00
12 0.00
13 0.00
14 0.00
15 0.00
16 0.00
17 0.00
18 0.00
19 0.00
20 0.00
21 0.00

@<SCITEGIC>ATOM_PROPERTY
pdb_occupancy
SciTegic.value.DoubleValue
1 1.00
2 1.00
3 1.00
4 1.00
5 1.00
6 1.00
7 1.00
8 1.00
9 1.00
10 1.00
11 1.00
12 1.00
13 1.00
14 1.00
15 1.00
16 1.00
17 1.00
18 1.00
19 1.00
20 1.00
21 1.00

#	copyright 2023 drugdesign.org
#	Creation time:	2024-01-11T10:58:42Z

@<TRIPOS>MOLECULE
b123.sd
   21    21     0 0 0
SMALL
USER_CHARGES


@<TRIPOS>ATOM
      1 H1            0.000000    0.000000    0.000000 H        1 SUBUNIT    0.0840
      2 C2            1.090000    0.000000    0.000000 C.2      1 SUBUNIT    0.0297
      3 N3            1.759000    1.158700    0.000000 N.2      1 SUBUNIT   -0.2610
      4 C4            3.097000    1.158700    0.000000 C.2      1 SUBUNIT    0.0441
      5 C5            3.794500   -0.049400    0.000000 C.2      1 SUBUNIT   -0.0101
      6 C6            3.097000   -1.257500    0.000000 C.2      1 SUBUNIT    0.0779
      7 C7            1.702000   -1.257500    0.000000 C.2      1 SUBUNIT   -0.0134
      8 C8            3.857000    2.475100    0.000000 C.3      1 SUBUNIT    0.0033
      9 C9            3.535400    3.335300    1.227400 C.3      1 SUBUNIT    0.0279
     10 Cl10          3.947000    2.516100    2.759000 Cl       1 SUBUNIT   -0.1262
     11 O11           3.786500   -2.451700    0.000400 O.3      1 SUBUNIT   -0.3492
     12 C12           2.897500   -3.569300    0.000300 C.3      1 SUBUNIT    0.0422
     13 H13           2.253100   -3.543300    0.901300 H        1 SUBUNIT    0.0535
     14 H14           2.253600   -3.543600   -0.901000 H        1 SUBUNIT    0.0535
     15 H15           3.474800   -4.515000    0.000700 H        1 SUBUNIT    0.0535
     16 H16           4.884500   -0.049400    0.000000 H        1 SUBUNIT    0.0669
     17 H17           1.121400   -2.180000    0.000000 H        1 SUBUNIT    0.0666
     18 H18           3.618800    3.041000   -0.922300 H        1 SUBUNIT    0.0344
     19 H19           4.946100    2.274700   -0.037500 H        1 SUBUNIT    0.0344
     20 H20           2.458900    3.597800    1.224800 H        1 SUBUNIT    0.0439
     21 H21           4.083900    4.295700    1.161400 H        1 SUBUNIT    0.0439
@<TRIPOS>BOND
     1    1    2 1
     2    2    3 2
     3    2    7 1
     4    3    4 1
     5    4    5 2
     6    4    8 1
     7    5    6 1
     8    5   16 1
     9    6    7 2
    10    6   11 1
    11    7   17 1
    12    8    9 1
    13    8   18 1
    14    8   19 1
    15    9   10 1
    16    9   20 1
    17    9   21 1
    18   11   12 1
    19   12   13 1
    20   12   14 1
    21   12   15 1
@<SCITEGIC>ATOM_PROPERTY
Formal Charge
SciTegic.value.StringValue
1 0
2 0
3 0
4 0
5 0
6 0
7 0
8 0
9 0
10 0
11 0
12 0
13 0
14 0
15 0
16 0
17 0
18 0
19 0
20 0
21 0

@<SCITEGIC>ATOM_PROPERTY
pdb_tempFactor
SciTegic.value.DoubleValue
1 0.00
2 0.00
3 0.00
4 0.00
5 0.00
6 0.00
7 0.00
8 0.00
9 0.00
10 0.00
11 0.00
12 0.00
13 0.00
14 0.00
15 0.00
16 0.00
17 0.00
18 0.00
19 0.00
20 0.00
21 0.00

@<SCITEGIC>ATOM_PROPERTY
pdb_occupancy
SciTegic.value.DoubleValue
1 1.00
2 1.00
3 1.00
4 1.00
5 1.00
6 1.00
7 1.00
8 1.00
9 1.00
10 1.00
11 1.00
12 1.00
13 1.00
14 1.00
15 1.00
16 1.00
17 1.00
18 1.00
19 1.00
20 1.00
21 1.00

#	copyright 2023 drugdesign.org
#	Creation time:	2024-01-11T10:58:42Z

@<TRIPOS>MOLECULE
b123.sd
   21    21     0 0 0
SMALL
USER_CHARGES


@<TRIPOS>ATOM
      1 H1            0.000000    0.000000    0.000000 H        1 SUBUNIT    0.0840
      2 C2            1.090000    0.000000    0.000000 C.2      1 SUBUNIT    0.0297
      3 N3            1.759000    1.158700    0.000000 N.2      1 SUBUNIT   -0.2610
      4 C4            3.097000    1.158700    0.000000 C.2      1 SUBUNIT    0.0441
      5 C5            3.794500   -0.049400    0.000000 C.2      1 SUBUNIT   -0.0101
      6 C6            3.097000   -1.257500    0.000000 C.2      1 SUBUNIT    0.0779
      7 C7            1.702000   -1.257500    0.000000 C.2      1 SUBUNIT   -0.0134
      8 C8            3.857000    2.475100    0.000000 C.3      1 SUBUNIT    0.0033
      9 C9            4.762800    2.626700    1.227400 C.3      1 SUBUNIT    0.0279
     10 Cl10          5.655300    4.172500    1.227400 Cl       1 SUBUNIT   -0.1262
     11 O11           3.786500   -2.451700    0.000400 O.3      1 SUBUNIT   -0.3492
     12 C12           2.897500   -3.569300    0.000300 C.3      1 SUBUNIT    0.0422
     13 H13           2.253100   -3.543300    0.901300 H        1 SUBUNIT    0.0535
     14 H14           2.253600   -3.543600   -0.901000 H        1 SUBUNIT    0.0535
     15 H15           3.474800   -4.515000    0.000700 H        1 SUBUNIT    0.0535
     16 H16           4.884500   -0.049400    0.000000 H        1 SUBUNIT    0.0669
     17 H17           1.121400   -2.180000    0.000000 H        1 SUBUNIT    0.0666
     18 H18           3.138900    3.318100   -0.037500 H        1 SUBUNIT    0.0344
     19 H19           4.466200    2.551700   -0.922300 H        1 SUBUNIT    0.0344
     20 H20           5.480900    1.783700    1.264900 H        1 SUBUNIT    0.0439
     21 H21           4.153600    2.550100    2.149800 H        1 SUBUNIT    0.0439
@<TRIPOS>BOND
     1    1    2 1
     2    2    3 2
     3    2    7 1
     4    3    4 1
     5    4    5 2
     6    4    8 1
     7    5    6 1
     8    5   16 1
     9    6    7 2
    10    6   11 1
    11    7   17 1
    12    8    9 1
    13    8   18 1
    14    8   19 1
    15    9   10 1
    16    9   20 1
    17    9   21 1
    18   11   12 1
    19   12   13 1
    20   12   14 1
    21   12   15 1
@<SCITEGIC>ATOM_PROPERTY
Formal Charge
SciTegic.value.StringValue
1 0
2 0
3 0
4 0
5 0
6 0
7 0
8 0
9 0
10 0
11 0
12 0
13 0
14 0
15 0
16 0
17 0
18 0
19 0
20 0
21 0

@<SCITEGIC>ATOM_PROPERTY
pdb_tempFactor
SciTegic.value.DoubleValue
1 0.00
2 0.00
3 0.00
4 0.00
5 0.00
6 0.00
7 0.00
8 0.00
9 0.00
10 0.00
11 0.00
12 0.00
13 0.00
14 0.00
15 0.00
16 0.00
17 0.00
18 0.00
19 0.00
20 0.00
21 0.00

@<SCITEGIC>ATOM_PROPERTY
pdb_occupancy
SciTegic.value.DoubleValue
1 1.00
2 1.00
3 1.00
4 1.00
5 1.00
6 1.00
7 1.00
8 1.00
9 1.00
10 1.00
11 1.00
12 1.00
13 1.00
14 1.00
15 1.00
16 1.00
17 1.00
18 1.00
19 1.00
20 1.00
21 1.00

#	copyright 2023 drugdesign.org
#	Creation time:	2024-01-11T10:58:42Z

@<TRIPOS>MOLECULE
b123.sd
   21    21     0 0 0
SMALL
USER_CHARGES


@<TRIPOS>ATOM
      1 H1            0.000000    0.000000    0.000000 H        1 SUBUNIT    0.0840
      2 C2            1.090000    0.000000    0.000000 C.2      1 SUBUNIT    0.0297
      3 N3            1.759000    1.158700    0.000000 N.2      1 SUBUNIT   -0.2610
      4 C4            3.097000    1.158700    0.000000 C.2      1 SUBUNIT    0.0441
      5 C5            3.794500   -0.049400    0.000000 C.2      1 SUBUNIT   -0.0101
      6 C6            3.097000   -1.257500    0.000000 C.2      1 SUBUNIT    0.0779
      7 C7            1.702000   -1.257500    0.000000 C.2      1 SUBUNIT   -0.0134
      8 C8            3.857000    2.475100    0.000000 C.3      1 SUBUNIT    0.0033
      9 C9            4.762800    2.626700   -1.227400 C.3      1 SUBUNIT    0.0279
     10 Cl10          5.655700    4.172300   -1.227200 Cl       1 SUBUNIT   -0.1262
     11 O11           3.786500   -2.451700    0.000400 O.3      1 SUBUNIT   -0.3492
     12 C12           2.897500   -3.569300    0.000300 C.3      1 SUBUNIT    0.0422
     13 H13           2.253100   -3.543300    0.901300 H        1 SUBUNIT    0.0535
     14 H14           2.253600   -3.543600   -0.901000 H        1 SUBUNIT    0.0535
     15 H15           3.474800   -4.515000    0.000700 H        1 SUBUNIT    0.0535
     16 H16           4.884500   -0.049400    0.000000 H        1 SUBUNIT    0.0669
     17 H17           1.121400   -2.180000    0.000000 H        1 SUBUNIT    0.0666
     18 H18           4.466200    2.551700    0.922300 H        1 SUBUNIT    0.0344
     19 H19           3.138900    3.318100    0.037500 H        1 SUBUNIT    0.0344
     20 H20           4.153600    2.550400   -2.149800 H        1 SUBUNIT    0.0439
     21 H21           5.480700    1.783500   -1.265100 H        1 SUBUNIT    0.0439
@<TRIPOS>BOND
     1    1    2 1
     2    2    3 2
     3    2    7 1
     4    3    4 1
     5    4    5 2
     6    4    8 1
     7    5    6 1
     8    5   16 1
     9    6    7 2
    10    6   11 1
    11    7   17 1
    12    8    9 1
    13    8   18 1
    14    8   19 1
    15    9   10 1
    16    9   20 1
    17    9   21 1
    18   11   12 1
    19   12   13 1
    20   12   14 1
    21   12   15 1
@<SCITEGIC>ATOM_PROPERTY
Formal Charge
SciTegic.value.StringValue
1 0
2 0
3 0
4 0
5 0
6 0
7 0
8 0
9 0
10 0
11 0
12 0
13 0
14 0
15 0
16 0
17 0
18 0
19 0
20 0
21 0

@<SCITEGIC>ATOM_PROPERTY
pdb_tempFactor
SciTegic.value.DoubleValue
1 0.00
2 0.00
3 0.00
4 0.00
5 0.00
6 0.00
7 0.00
8 0.00
9 0.00
10 0.00
11 0.00
12 0.00
13 0.00
14 0.00
15 0.00
16 0.00
17 0.00
18 0.00
19 0.00
20 0.00
21 0.00

@<SCITEGIC>ATOM_PROPERTY
pdb_occupancy
SciTegic.value.DoubleValue
1 1.00
2 1.00
3 1.00
4 1.00
5 1.00
6 1.00
7 1.00
8 1.00
9 1.00
10 1.00
11 1.00
12 1.00
13 1.00
14 1.00
15 1.00
16 1.00
17 1.00
18 1.00
19 1.00
20 1.00
21 1.00

#	copyright 2023 drugdesign.org
#	Creation time:	2024-01-11T10:58:42Z

@<TRIPOS>MOLECULE
b123.sd
   21    21     0 0 0
SMALL
USER_CHARGES


@<TRIPOS>ATOM
      1 H1            0.000000    0.000000    0.000000 H        1 SUBUNIT    0.0840
      2 C2            1.090000    0.000000    0.000000 C.2      1 SUBUNIT    0.0297
      3 N3            1.759000    1.158700    0.000000 N.2      1 SUBUNIT   -0.2610
      4 C4            3.097000    1.158700    0.000000 C.2      1 SUBUNIT    0.0441
      5 C5            3.794500   -0.049400    0.000000 C.2      1 SUBUNIT   -0.0101
      6 C6            3.097000   -1.257500    0.000000 C.2      1 SUBUNIT    0.0779
      7 C7            1.702000   -1.257500    0.000000 C.2      1 SUBUNIT   -0.0134
      8 C8            3.857000    2.475100    0.000000 C.3      1 SUBUNIT    0.0033
      9 C9            4.762800    2.626700   -1.227400 C.3      1 SUBUNIT    0.0279
     10 Cl10          3.847500    2.573500   -2.759000 Cl       1 SUBUNIT   -0.1262
     11 O11           3.786500   -2.451700    0.000400 O.3      1 SUBUNIT   -0.3492
     12 C12           2.897500   -3.569300    0.000300 C.3      1 SUBUNIT    0.0422
     13 H13           2.253100   -3.543300    0.901300 H        1 SUBUNIT    0.0535
     14 H14           2.253600   -3.543600   -0.901000 H        1 SUBUNIT    0.0535
     15 H15           3.474800   -4.515000    0.000700 H        1 SUBUNIT    0.0535
     16 H16           4.884500   -0.049400    0.000000 H        1 SUBUNIT    0.0669
     17 H17           1.121400   -2.180000    0.000000 H        1 SUBUNIT    0.0666
     18 H18           4.466200    2.551700    0.922300 H        1 SUBUNIT    0.0344
     19 H19           3.138900    3.318100    0.037500 H        1 SUBUNIT    0.0344
     20 H20           5.528300    1.825600   -1.224800 H        1 SUBUNIT    0.0439
     21 H21           5.320300    3.582000   -1.161400 H        1 SUBUNIT    0.0439
@<TRIPOS>BOND
     1    1    2 1
     2    2    3 2
     3    2    7 1
     4    3    4 1
     5    4    5 2
     6    4    8 1
     7    5    6 1
     8    5   16 1
     9    6    7 2
    10    6   11 1
    11    7   17 1
    12    8    9 1
    13    8   18 1
    14    8   19 1
    15    9   10 1
    16    9   20 1
    17    9   21 1
    18   11   12 1
    19   12   13 1
    20   12   14 1
    21   12   15 1
@<SCITEGIC>ATOM_PROPERTY
Formal Charge
SciTegic.value.StringValue
1 0
2 0
3 0
4 0
5 0
6 0
7 0
8 0
9 0
10 0
11 0
12 0
13 0
14 0
15 0
16 0
17 0
18 0
19 0
20 0
21 0

@<SCITEGIC>ATOM_PROPERTY
pdb_tempFactor
SciTegic.value.DoubleValue
1 0.00
2 0.00
3 0.00
4 0.00
5 0.00
6 0.00
7 0.00
8 0.00
9 0.00
10 0.00
11 0.00
12 0.00
13 0.00
14 0.00
15 0.00
16 0.00
17 0.00
18 0.00
19 0.00
20 0.00
21 0.00

@<SCITEGIC>ATOM_PROPERTY
pdb_occupancy
SciTegic.value.DoubleValue
1 1.00
2 1.00
3 1.00
4 1.00
5 1.00
6 1.00
7 1.00
8 1.00
9 1.00
10 1.00
11 1.00
12 1.00
13 1.00
14 1.00
15 1.00
16 1.00
17 1.00
18 1.00
19 1.00
20 1.00
21 1.00

#	copyright 2023 drugdesign.org
#	Creation time:	2024-01-11T10:58:42Z

@<TRIPOS>MOLECULE
b123.sd
   21    21     0 0 0
SMALL
USER_CHARGES


@<TRIPOS>ATOM
      1 H1            0.000000    0.000000    0.000000 H        1 SUBUNIT    0.0840
      2 C2            1.090000    0.000000    0.000000 C.2      1 SUBUNIT    0.0297
      3 N3            1.759000    1.158700    0.000000 N.2      1 SUBUNIT   -0.2610
      4 C4            3.097000    1.158700    0.000000 C.2      1 SUBUNIT    0.0441
      5 C5            3.794500   -0.049400    0.000000 C.2      1 SUBUNIT   -0.0101
      6 C6            3.097000   -1.257500    0.000000 C.2      1 SUBUNIT    0.0779
      7 C7            1.702000   -1.257500    0.000000 C.2      1 SUBUNIT   -0.0134
      8 C8            3.857000    2.475100    0.000000 C.3      1 SUBUNIT    0.0033
      9 C9            4.762800    2.626700    1.227400 C.3      1 SUBUNIT    0.0279
     10 Cl10          3.847500    2.573500    2.759000 Cl       1 SUBUNIT   -0.1262
     11 O11           3.786500   -2.451700    0.000400 O.3      1 SUBUNIT   -0.3492
     12 C12           2.897500   -3.569300    0.000300 C.3      1 SUBUNIT    0.0422
     13 H13           2.253100   -3.543300    0.901300 H        1 SUBUNIT    0.0535
     14 H14           2.253600   -3.543600   -0.901000 H        1 SUBUNIT    0.0535
     15 H15           3.474800   -4.515000    0.000700 H        1 SUBUNIT    0.0535
     16 H16           4.884500   -0.049400    0.000000 H        1 SUBUNIT    0.0669
     17 H17           1.121400   -2.180000    0.000000 H        1 SUBUNIT    0.0666
     18 H18           3.138900    3.318100   -0.037500 H        1 SUBUNIT    0.0344
     19 H19           4.466200    2.551700   -0.922300 H        1 SUBUNIT    0.0344
     20 H20           5.320300    3.582000    1.161400 H        1 SUBUNIT    0.0439
     21 H21           5.528300    1.825600    1.224800 H        1 SUBUNIT    0.0439
@<TRIPOS>BOND
     1    1    2 1
     2    2    3 2
     3    2    7 1
     4    3    4 1
     5    4    5 2
     6    4    8 1
     7    5    6 1
     8    5   16 1
     9    6    7 2
    10    6   11 1
    11    7   17 1
    12    8    9 1
    13    8   18 1
    14    8   19 1
    15    9   10 1
    16    9   20 1
    17    9   21 1
    18   11   12 1
    19   12   13 1
    20   12   14 1
    21   12   15 1
@<SCITEGIC>ATOM_PROPERTY
Formal Charge
SciTegic.value.StringValue
1 0
2 0
3 0
4 0
5 0
6 0
7 0
8 0
9 0
10 0
11 0
12 0
13 0
14 0
15 0
16 0
17 0
18 0
19 0
20 0
21 0

@<SCITEGIC>ATOM_PROPERTY
pdb_tempFactor
SciTegic.value.DoubleValue
1 0.00
2 0.00
3 0.00
4 0.00
5 0.00
6 0.00
7 0.00
8 0.00
9 0.00
10 0.00
11 0.00
12 0.00
13 0.00
14 0.00
15 0.00
16 0.00
17 0.00
18 0.00
19 0.00
20 0.00
21 0.00

@<SCITEGIC>ATOM_PROPERTY
pdb_occupancy
SciTegic.value.DoubleValue
1 1.00
2 1.00
3 1.00
4 1.00
5 1.00
6 1.00
7 1.00
8 1.00
9 1.00
10 1.00
11 1.00
12 1.00
13 1.00
14 1.00
15 1.00
16 1.00
17 1.00
18 1.00
19 1.00
20 1.00
21 1.00

#	copyright 2023 drugdesign.org
#	Creation time:	2024-01-11T10:58:42Z

@<TRIPOS>MOLECULE
b123.sd
   21    21     0 0 0
SMALL
USER_CHARGES


@<TRIPOS>ATOM
      1 H1            0.000000    0.000000    0.000000 H        1 SUBUNIT    0.0840
      2 C2            1.090000    0.000000    0.000000 C.2      1 SUBUNIT    0.0297
      3 N3            1.759000    1.158700    0.000000 N.2      1 SUBUNIT   -0.2610
      4 C4            3.097000    1.158700    0.000000 C.2      1 SUBUNIT    0.0441
      5 C5            3.794500   -0.049400    0.000000 C.2      1 SUBUNIT   -0.0101
      6 C6            3.097000   -1.257500    0.000000 C.2      1 SUBUNIT    0.0779
      7 C7            1.702000   -1.257500    0.000000 C.2      1 SUBUNIT   -0.0134
      8 C8            3.857000    2.475100    0.000000 C.3      1 SUBUNIT    0.0033
      9 C9            3.535400    3.335300    1.227400 C.3      1 SUBUNIT    0.0279
     10 Cl10          1.803100    3.753800    1.329800 Cl       1 SUBUNIT   -0.1262
     11 O11           3.786500   -2.451700    0.000400 O.3      1 SUBUNIT   -0.3492
     12 C12           2.897500   -3.569300    0.000300 C.3      1 SUBUNIT    0.0422
     13 H13           2.253100   -3.543300    0.901300 H        1 SUBUNIT    0.0535
     14 H14           2.253600   -3.543600   -0.901000 H        1 SUBUNIT    0.0535
     15 H15           3.474800   -4.515000    0.000700 H        1 SUBUNIT    0.0535
     16 H16           4.884500   -0.049400    0.000000 H        1 SUBUNIT    0.0669
     17 H17           1.121400   -2.180000    0.000000 H        1 SUBUNIT    0.0666
     18 H18           3.618800    3.041000   -0.922300 H        1 SUBUNIT    0.0344
     19 H19           4.946100    2.274700   -0.037500 H        1 SUBUNIT    0.0344
     20 H20           4.140100    4.263300    1.198900 H        1 SUBUNIT    0.0439
     21 H21           3.842400    2.799000    2.147100 H        1 SUBUNIT    0.0439
@<TRIPOS>BOND
     1    1    2 1
     2    2    3 2
     3    2    7 1
     4    3    4 1
     5    4    5 2
     6    4    8 1
     7    5    6 1
     8    5   16 1
     9    6    7 2
    10    6   11 1
    11    7   17 1
    12    8    9 1
    13    8   18 1
    14    8   19 1
    15    9   10 1
    16    9   20 1
    17    9   21 1
    18   11   12 1
    19   12   13 1
    20   12   14 1
    21   12   15 1
@<SCITEGIC>ATOM_PROPERTY
Formal Charge
SciTegic.value.StringValue
1 0
2 0
3 0
4 0
5 0
6 0
7 0
8 0
9 0
10 0
11 0
12 0
13 0
14 0
15 0
16 0
17 0
18 0
19 0
20 0
21 0

@<SCITEGIC>ATOM_PROPERTY
pdb_tempFactor
SciTegic.value.DoubleValue
1 0.00
2 0.00
3 0.00
4 0.00
5 0.00
6 0.00
7 0.00
8 0.00
9 0.00
10 0.00
11 0.00
12 0.00
13 0.00
14 0.00
15 0.00
16 0.00
17 0.00
18 0.00
19 0.00
20 0.00
21 0.00

@<SCITEGIC>ATOM_PROPERTY
pdb_occupancy
SciTegic.value.DoubleValue
1 1.00
2 1.00
3 1.00
4 1.00
5 1.00
6 1.00
7 1.00
8 1.00
9 1.00
10 1.00
11 1.00
12 1.00
13 1.00
14 1.00
15 1.00
16 1.00
17 1.00
18 1.00
19 1.00
20 1.00
21 1.00

#	copyright 2023 drugdesign.org
#	Creation time:	2024-01-11T10:58:42Z

@<TRIPOS>MOLECULE
b123.sd
   21    21     0 0 0
SMALL
USER_CHARGES


@<TRIPOS>ATOM
      1 H1            0.000000    0.000000    0.000000 H        1 SUBUNIT    0.0840
      2 C2            1.090000    0.000000    0.000000 C.2      1 SUBUNIT    0.0297
      3 N3            1.759000    1.158700    0.000000 N.2      1 SUBUNIT   -0.2610
      4 C4            3.097000    1.158700    0.000000 C.2      1 SUBUNIT    0.0441
      5 C5            3.794500   -0.049400    0.000000 C.2      1 SUBUNIT   -0.0101
      6 C6            3.097000   -1.257500    0.000000 C.2      1 SUBUNIT    0.0779
      7 C7            1.702000   -1.257500    0.000000 C.2      1 SUBUNIT   -0.0134
      8 C8            3.857000    2.475100    0.000000 C.3      1 SUBUNIT    0.0033
      9 C9            3.535400    3.335300   -1.227400 C.3      1 SUBUNIT    0.0279
     10 Cl10          1.803100    3.753800   -1.329800 Cl       1 SUBUNIT   -0.1262
     11 O11           3.786500   -2.451700    0.000400 O.3      1 SUBUNIT   -0.3492
     12 C12           2.897500   -3.569300    0.000300 C.3      1 SUBUNIT    0.0422
     13 H13           2.253100   -3.543300    0.901300 H        1 SUBUNIT    0.0535
     14 H14           2.253600   -3.543600   -0.901000 H        1 SUBUNIT    0.0535
     15 H15           3.474800   -4.515000    0.000700 H        1 SUBUNIT    0.0535
     16 H16           4.884500   -0.049400    0.000000 H        1 SUBUNIT    0.0669
     17 H17           1.121400   -2.180000    0.000000 H        1 SUBUNIT    0.0666
     18 H18           4.946100    2.274700    0.037500 H        1 SUBUNIT    0.0344
     19 H19           3.618800    3.041000    0.922300 H        1 SUBUNIT    0.0344
     20 H20           3.842400    2.799000   -2.147100 H        1 SUBUNIT    0.0439
     21 H21           4.140100    4.263300   -1.198900 H        1 SUBUNIT    0.0439
@<TRIPOS>BOND
     1    1    2 1
     2    2    3 2
     3    2    7 1
     4    3    4 1
     5    4    5 2
     6    4    8 1
     7    5    6 1
     8    5   16 1
     9    6    7 2
    10    6   11 1
    11    7   17 1
    12    8    9 1
    13    8   18 1
    14    8   19 1
    15    9   10 1
    16    9   20 1
    17    9   21 1
    18   11   12 1
    19   12   13 1
    20   12   14 1
    21   12   15 1
@<SCITEGIC>ATOM_PROPERTY
Formal Charge
SciTegic.value.StringValue
1 0
2 0
3 0
4 0
5 0
6 0
7 0
8 0
9 0
10 0
11 0
12 0
13 0
14 0
15 0
16 0
17 0
18 0
19 0
20 0
21 0

@<SCITEGIC>ATOM_PROPERTY
pdb_tempFactor
SciTegic.value.DoubleValue
1 0.00
2 0.00
3 0.00
4 0.00
5 0.00
6 0.00
7 0.00
8 0.00
9 0.00
10 0.00
11 0.00
12 0.00
13 0.00
14 0.00
15 0.00
16 0.00
17 0.00
18 0.00
19 0.00
20 0.00
21 0.00

@<SCITEGIC>ATOM_PROPERTY
pdb_occupancy
SciTegic.value.DoubleValue
1 1.00
2 1.00
3 1.00
4 1.00
5 1.00
6 1.00
7 1.00
8 1.00
9 1.00
10 1.00
11 1.00
12 1.00
13 1.00
14 1.00
15 1.00
16 1.00
17 1.00
18 1.00
19 1.00
20 1.00
21 1.00

#	copyright 2023 drugdesign.org
#	Creation time:	2024-01-11T10:58:42Z

@<TRIPOS>MOLECULE
b123.sd
   21    21     0 0 0
SMALL
USER_CHARGES


@<TRIPOS>ATOM
      1 H1            0.000000    0.000000    0.000000 H        1 SUBUNIT    0.0840
      2 C2            1.090000    0.000000    0.000000 C.2      1 SUBUNIT    0.0297
      3 N3            1.759000    1.158700    0.000000 N.2      1 SUBUNIT   -0.2610
      4 C4            3.097000    1.158700    0.000000 C.2      1 SUBUNIT    0.0441
      5 C5            3.794500   -0.049400    0.000000 C.2      1 SUBUNIT   -0.0101
      6 C6            3.097000   -1.257500    0.000000 C.2      1 SUBUNIT    0.0779
      7 C7            1.702000   -1.257500    0.000000 C.2      1 SUBUNIT   -0.0134
      8 C8            3.857000    2.475100    0.000000 C.3      1 SUBUNIT    0.0033
      9 C9            2.921600    3.689700    0.000000 C.3      1 SUBUNIT    0.0279
     10 Cl10          3.814100    5.235500    0.000000 Cl       1 SUBUNIT   -0.1262
     11 O11           3.786500   -2.451700    0.000400 O.3      1 SUBUNIT   -0.3492
     12 C12           2.897500   -3.569300    0.000300 C.3      1 SUBUNIT    0.0422
     13 H13           2.253100   -3.543300    0.901300 H        1 SUBUNIT    0.0535
     14 H14           2.253600   -3.543600   -0.901000 H        1 SUBUNIT    0.0535
     15 H15           3.474800   -4.515000    0.000700 H        1 SUBUNIT    0.0535
     16 H16           4.884500   -0.049400    0.000000 H        1 SUBUNIT    0.0669
     17 H17           1.121400   -2.180000    0.000000 H        1 SUBUNIT    0.0666
     18 H18           4.522400    2.519300   -0.884900 H        1 SUBUNIT    0.0344
     19 H19           4.522400    2.519300    0.884900 H        1 SUBUNIT    0.0344
     20 H20           2.256300    3.645500    0.884900 H        1 SUBUNIT    0.0439
     21 H21           2.256300    3.645500   -0.884900 H        1 SUBUNIT    0.0439
@<TRIPOS>BOND
     1    1    2 1
     2    2    3 2
     3    2    7 1
     4    3    4 1
     5    4    5 2
     6    4    8 1
     7    5    6 1
     8    5   16 1
     9    6    7 2
    10    6   11 1
    11    7   17 1
    12    8    9 1
    13    8   18 1
    14    8   19 1
    15    9   10 1
    16    9   20 1
    17    9   21 1
    18   11   12 1
    19   12   13 1
    20   12   14 1
    21   12   15 1
@<SCITEGIC>ATOM_PROPERTY
Formal Charge
SciTegic.value.StringValue
1 0
2 0
3 0
4 0
5 0
6 0
7 0
8 0
9 0
10 0
11 0
12 0
13 0
14 0
15 0
16 0
17 0
18 0
19 0
20 0
21 0

@<SCITEGIC>ATOM_PROPERTY
pdb_tempFactor
SciTegic.value.DoubleValue
1 0.00
2 0.00
3 0.00
4 0.00
5 0.00
6 0.00
7 0.00
8 0.00
9 0.00
10 0.00
11 0.00
12 0.00
13 0.00
14 0.00
15 0.00
16 0.00
17 0.00
18 0.00
19 0.00
20 0.00
21 0.00

@<SCITEGIC>ATOM_PROPERTY
pdb_occupancy
SciTegic.value.DoubleValue
1 1.00
2 1.00
3 1.00
4 1.00
5 1.00
6 1.00
7 1.00
8 1.00
9 1.00
10 1.00
11 1.00
12 1.00
13 1.00
14 1.00
15 1.00
16 1.00
17 1.00
18 1.00
19 1.00
20 1.00
21 1.00

#	copyright 2023 drugdesign.org
#	Creation time:	2024-01-11T10:58:42Z

@<TRIPOS>MOLECULE
b123.sd
   21    21     0 0 0
SMALL
USER_CHARGES


@<TRIPOS>ATOM
      1 H1            0.000000    0.000000    0.000000 H        1 SUBUNIT    0.0840
      2 C2            1.090000    0.000000    0.000000 C.2      1 SUBUNIT    0.0297
      3 N3            1.759000    1.158700    0.000000 N.2      1 SUBUNIT   -0.2610
      4 C4            3.097000    1.158700    0.000000 C.2      1 SUBUNIT    0.0441
      5 C5            3.794500   -0.049400    0.000000 C.2      1 SUBUNIT   -0.0101
      6 C6            3.097000   -1.257500    0.000000 C.2      1 SUBUNIT    0.0779
      7 C7            1.702000   -1.257500    0.000000 C.2      1 SUBUNIT   -0.0134
      8 C8            3.857000    2.475100    0.000000 C.3      1 SUBUNIT    0.0033
      9 C9            3.535400    3.335300    1.227400 C.3      1 SUBUNIT    0.0279
     10 Cl10          4.427900    4.881200    1.227400 Cl       1 SUBUNIT   -0.1262
     11 O11           3.786500   -2.451700    0.000400 O.3      1 SUBUNIT   -0.3492
     12 C12           5.198800   -2.240600    0.000800 C.3      1 SUBUNIT    0.0422
     13 H13           5.498800   -1.670000   -0.900300 H        1 SUBUNIT    0.0535
     14 H14           5.498200   -1.669700    0.901900 H        1 SUBUNIT    0.0535
     15 H15           5.729200   -3.213500    0.001100 H        1 SUBUNIT    0.0535
     16 H16           4.884500   -0.049400    0.000000 H        1 SUBUNIT    0.0669
     17 H17           1.121400   -2.180000    0.000000 H        1 SUBUNIT    0.0666
     18 H18           3.618800    3.041000   -0.922300 H        1 SUBUNIT    0.0344
     19 H19           4.946100    2.274700   -0.037500 H        1 SUBUNIT    0.0344
     20 H20           3.773600    2.769500    2.149800 H        1 SUBUNIT    0.0439
     21 H21           2.446300    3.535800    1.264900 H        1 SUBUNIT    0.0439
@<TRIPOS>BOND
     1    1    2 1
     2    2    3 2
     3    2    7 1
     4    3    4 1
     5    4    5 2
     6    4    8 1
     7    5    6 1
     8    5   16 1
     9    6    7 2
    10    6   11 1
    11    7   17 1
    12    8    9 1
    13    8   18 1
    14    8   19 1
    15    9   10 1
    16    9   20 1
    17    9   21 1
    18   11   12 1
    19   12   13 1
    20   12   14 1
    21   12   15 1
@<SCITEGIC>ATOM_PROPERTY
Formal Charge
SciTegic.value.StringValue
1 0
2 0
3 0
4 0
5 0
6 0
7 0
8 0
9 0
10 0
11 0
12 0
13 0
14 0
15 0
16 0
17 0
18 0
19 0
20 0
21 0

@<SCITEGIC>ATOM_PROPERTY
pdb_tempFactor
SciTegic.value.DoubleValue
1 0.00
2 0.00
3 0.00
4 0.00
5 0.00
6 0.00
7 0.00
8 0.00
9 0.00
10 0.00
11 0.00
12 0.00
13 0.00
14 0.00
15 0.00
16 0.00
17 0.00
18 0.00
19 0.00
20 0.00
21 0.00

@<SCITEGIC>ATOM_PROPERTY
pdb_occupancy
SciTegic.value.DoubleValue
1 1.00
2 1.00
3 1.00
4 1.00
5 1.00
6 1.00
7 1.00
8 1.00
9 1.00
10 1.00
11 1.00
12 1.00
13 1.00
14 1.00
15 1.00
16 1.00
17 1.00
18 1.00
19 1.00
20 1.00
21 1.00

#	copyright 2023 drugdesign.org
#	Creation time:	2024-01-11T10:58:42Z

@<TRIPOS>MOLECULE
b123.sd
   21    21     0 0 0
SMALL
USER_CHARGES


@<TRIPOS>ATOM
      1 H1            0.000000    0.000000    0.000000 H        1 SUBUNIT    0.0840
      2 C2            1.090000    0.000000    0.000000 C.2      1 SUBUNIT    0.0297
      3 N3            1.759000    1.158700    0.000000 N.2      1 SUBUNIT   -0.2610
      4 C4            3.097000    1.158700    0.000000 C.2      1 SUBUNIT    0.0441
      5 C5            3.794500   -0.049400    0.000000 C.2      1 SUBUNIT   -0.0101
      6 C6            3.097000   -1.257500    0.000000 C.2      1 SUBUNIT    0.0779
      7 C7            1.702000   -1.257500    0.000000 C.2      1 SUBUNIT   -0.0134
      8 C8            3.857000    2.475100    0.000000 C.3      1 SUBUNIT    0.0033
      9 C9            3.535400    3.335300   -1.227400 C.3      1 SUBUNIT    0.0279
     10 Cl10          4.427900    4.881200   -1.227400 Cl       1 SUBUNIT   -0.1262
     11 O11           3.786500   -2.451700    0.000400 O.3      1 SUBUNIT   -0.3492
     12 C12           5.198800   -2.240600    0.000800 C.3      1 SUBUNIT    0.0422
     13 H13           5.498800   -1.670000   -0.900300 H        1 SUBUNIT    0.0535
     14 H14           5.498200   -1.669700    0.901900 H        1 SUBUNIT    0.0535
     15 H15           5.729200   -3.213500    0.001100 H        1 SUBUNIT    0.0535
     16 H16           4.884500   -0.049400    0.000000 H        1 SUBUNIT    0.0669
     17 H17           1.121400   -2.180000    0.000000 H        1 SUBUNIT    0.0666
     18 H18           4.946100    2.274700    0.037500 H        1 SUBUNIT    0.0344
     19 H19           3.618800    3.041000    0.922300 H        1 SUBUNIT    0.0344
     20 H20           2.446300    3.535800   -1.264900 H        1 SUBUNIT    0.0439
     21 H21           3.773600    2.769500   -2.149800 H        1 SUBUNIT    0.0439
@<TRIPOS>BOND
     1    1    2 1
     2    2    3 2
     3    2    7 1
     4    3    4 1
     5    4    5 2
     6    4    8 1
     7    5    6 1
     8    5   16 1
     9    6    7 2
    10    6   11 1
    11    7   17 1
    12    8    9 1
    13    8   18 1
    14    8   19 1
    15    9   10 1
    16    9   20 1
    17    9   21 1
    18   11   12 1
    19   12   13 1
    20   12   14 1
    21   12   15 1
@<SCITEGIC>ATOM_PROPERTY
Formal Charge
SciTegic.value.StringValue
1 0
2 0
3 0
4 0
5 0
6 0
7 0
8 0
9 0
10 0
11 0
12 0
13 0
14 0
15 0
16 0
17 0
18 0
19 0
20 0
21 0

@<SCITEGIC>ATOM_PROPERTY
pdb_tempFactor
SciTegic.value.DoubleValue
1 0.00
2 0.00
3 0.00
4 0.00
5 0.00
6 0.00
7 0.00
8 0.00
9 0.00
10 0.00
11 0.00
12 0.00
13 0.00
14 0.00
15 0.00
16 0.00
17 0.00
18 0.00
19 0.00
20 0.00
21 0.00

@<SCITEGIC>ATOM_PROPERTY
pdb_occupancy
SciTegic.value.DoubleValue
1 1.00
2 1.00
3 1.00
4 1.00
5 1.00
6 1.00
7 1.00
8 1.00
9 1.00
10 1.00
11 1.00
12 1.00
13 1.00
14 1.00
15 1.00
16 1.00
17 1.00
18 1.00
19 1.00
20 1.00
21 1.00

#	copyright 2023 drugdesign.org
#	Creation time:	2024-01-11T10:58:42Z

@<TRIPOS>MOLECULE
b123.sd
   21    21     0 0 0
SMALL
USER_CHARGES


@<TRIPOS>ATOM
      1 H1            0.000000    0.000000    0.000000 H        1 SUBUNIT    0.0840
      2 C2            1.090000    0.000000    0.000000 C.2      1 SUBUNIT    0.0297
      3 N3            1.759000    1.158700    0.000000 N.2      1 SUBUNIT   -0.2610
      4 C4            3.097000    1.158700    0.000000 C.2      1 SUBUNIT    0.0441
      5 C5            3.794500   -0.049400    0.000000 C.2      1 SUBUNIT   -0.0101
      6 C6            3.097000   -1.257500    0.000000 C.2      1 SUBUNIT    0.0779
      7 C7            1.702000   -1.257500    0.000000 C.2      1 SUBUNIT   -0.0134
      8 C8            3.857000    2.475100    0.000000 C.3      1 SUBUNIT    0.0033
      9 C9            3.535400    3.335300    1.227400 C.3      1 SUBUNIT    0.0279
     10 Cl10          3.947000    2.516100    2.759000 Cl       1 SUBUNIT   -0.1262
     11 O11           3.786500   -2.451700    0.000400 O.3      1 SUBUNIT   -0.3492
     12 C12           5.198800   -2.240600    0.000800 C.3      1 SUBUNIT    0.0422
     13 H13           5.498800   -1.670000   -0.900300 H        1 SUBUNIT    0.0535
     14 H14           5.498200   -1.669700    0.901900 H        1 SUBUNIT    0.0535
     15 H15           5.729200   -3.213500    0.001100 H        1 SUBUNIT    0.0535
     16 H16           4.884500   -0.049400    0.000000 H        1 SUBUNIT    0.0669
     17 H17           1.121400   -2.180000    0.000000 H        1 SUBUNIT    0.0666
     18 H18           3.618800    3.041000   -0.922300 H        1 SUBUNIT    0.0344
     19 H19           4.946100    2.274700   -0.037500 H        1 SUBUNIT    0.0344
     20 H20           2.458900    3.597800    1.224800 H        1 SUBUNIT    0.0439
     21 H21           4.083900    4.295700    1.161400 H        1 SUBUNIT    0.0439
@<TRIPOS>BOND
     1    1    2 1
     2    2    3 2
     3    2    7 1
     4    3    4 1
     5    4    5 2
     6    4    8 1
     7    5    6 1
     8    5   16 1
     9    6    7 2
    10    6   11 1
    11    7   17 1
    12    8    9 1
    13    8   18 1
    14    8   19 1
    15    9   10 1
    16    9   20 1
    17    9   21 1
    18   11   12 1
    19   12   13 1
    20   12   14 1
    21   12   15 1
@<SCITEGIC>ATOM_PROPERTY
Formal Charge
SciTegic.value.StringValue
1 0
2 0
3 0
4 0
5 0
6 0
7 0
8 0
9 0
10 0
11 0
12 0
13 0
14 0
15 0
16 0
17 0
18 0
19 0
20 0
21 0

@<SCITEGIC>ATOM_PROPERTY
pdb_tempFactor
SciTegic.value.DoubleValue
1 0.00
2 0.00
3 0.00
4 0.00
5 0.00
6 0.00
7 0.00
8 0.00
9 0.00
10 0.00
11 0.00
12 0.00
13 0.00
14 0.00
15 0.00
16 0.00
17 0.00
18 0.00
19 0.00
20 0.00
21 0.00

@<SCITEGIC>ATOM_PROPERTY
pdb_occupancy
SciTegic.value.DoubleValue
1 1.00
2 1.00
3 1.00
4 1.00
5 1.00
6 1.00
7 1.00
8 1.00
9 1.00
10 1.00
11 1.00
12 1.00
13 1.00
14 1.00
15 1.00
16 1.00
17 1.00
18 1.00
19 1.00
20 1.00
21 1.00

#	copyright 2023 drugdesign.org
#	Creation time:	2024-01-11T10:58:42Z

@<TRIPOS>MOLECULE
b123.sd
   21    21     0 0 0
SMALL
USER_CHARGES


@<TRIPOS>ATOM
      1 H1            0.000000    0.000000    0.000000 H        1 SUBUNIT    0.0840
      2 C2            1.090000    0.000000    0.000000 C.2      1 SUBUNIT    0.0297
      3 N3            1.759000    1.158700    0.000000 N.2      1 SUBUNIT   -0.2610
      4 C4            3.097000    1.158700    0.000000 C.2      1 SUBUNIT    0.0441
      5 C5            3.794500   -0.049400    0.000000 C.2      1 SUBUNIT   -0.0101
      6 C6            3.097000   -1.257500    0.000000 C.2      1 SUBUNIT    0.0779
      7 C7            1.702000   -1.257500    0.000000 C.2      1 SUBUNIT   -0.0134
      8 C8            3.857000    2.475100    0.000000 C.3      1 SUBUNIT    0.0033
      9 C9            3.535400    3.335300   -1.227400 C.3      1 SUBUNIT    0.0279
     10 Cl10          3.947000    2.516100   -2.759000 Cl       1 SUBUNIT   -0.1262
     11 O11           3.786500   -2.451700    0.000400 O.3      1 SUBUNIT   -0.3492
     12 C12           5.198800   -2.240600    0.000800 C.3      1 SUBUNIT    0.0422
     13 H13           5.498800   -1.670000   -0.900300 H        1 SUBUNIT    0.0535
     14 H14           5.498200   -1.669700    0.901900 H        1 SUBUNIT    0.0535
     15 H15           5.729200   -3.213500    0.001100 H        1 SUBUNIT    0.0535
     16 H16           4.884500   -0.049400    0.000000 H        1 SUBUNIT    0.0669
     17 H17           1.121400   -2.180000    0.000000 H        1 SUBUNIT    0.0666
     18 H18           4.946100    2.274700    0.037500 H        1 SUBUNIT    0.0344
     19 H19           3.618800    3.041000    0.922300 H        1 SUBUNIT    0.0344
     20 H20           4.083900    4.295700   -1.161400 H        1 SUBUNIT    0.0439
     21 H21           2.458900    3.597800   -1.224800 H        1 SUBUNIT    0.0439
@<TRIPOS>BOND
     1    1    2 1
     2    2    3 2
     3    2    7 1
     4    3    4 1
     5    4    5 2
     6    4    8 1
     7    5    6 1
     8    5   16 1
     9    6    7 2
    10    6   11 1
    11    7   17 1
    12    8    9 1
    13    8   18 1
    14    8   19 1
    15    9   10 1
    16    9   20 1
    17    9   21 1
    18   11   12 1
    19   12   13 1
    20   12   14 1
    21   12   15 1
@<SCITEGIC>ATOM_PROPERTY
Formal Charge
SciTegic.value.StringValue
1 0
2 0
3 0
4 0
5 0
6 0
7 0
8 0
9 0
10 0
11 0
12 0
13 0
14 0
15 0
16 0
17 0
18 0
19 0
20 0
21 0

@<SCITEGIC>ATOM_PROPERTY
pdb_tempFactor
SciTegic.value.DoubleValue
1 0.00
2 0.00
3 0.00
4 0.00
5 0.00
6 0.00
7 0.00
8 0.00
9 0.00
10 0.00
11 0.00
12 0.00
13 0.00
14 0.00
15 0.00
16 0.00
17 0.00
18 0.00
19 0.00
20 0.00
21 0.00

@<SCITEGIC>ATOM_PROPERTY
pdb_occupancy
SciTegic.value.DoubleValue
1 1.00
2 1.00
3 1.00
4 1.00
5 1.00
6 1.00
7 1.00
8 1.00
9 1.00
10 1.00
11 1.00
12 1.00
13 1.00
14 1.00
15 1.00
16 1.00
17 1.00
18 1.00
19 1.00
20 1.00
21 1.00

#	copyright 2023 drugdesign.org
#	Creation time:	2024-01-11T10:58:42Z

@<TRIPOS>MOLECULE
b123.sd
   21    21     0 0 0
SMALL
USER_CHARGES


@<TRIPOS>ATOM
      1 H1            0.000000    0.000000    0.000000 H        1 SUBUNIT    0.0840
      2 C2            1.090000    0.000000    0.000000 C.2      1 SUBUNIT    0.0297
      3 N3            1.759000    1.158700    0.000000 N.2      1 SUBUNIT   -0.2610
      4 C4            3.097000    1.158700    0.000000 C.2      1 SUBUNIT    0.0441
      5 C5            3.794500   -0.049400    0.000000 C.2      1 SUBUNIT   -0.0101
      6 C6            3.097000   -1.257500    0.000000 C.2      1 SUBUNIT    0.0779
      7 C7            1.702000   -1.257500    0.000000 C.2      1 SUBUNIT   -0.0134
      8 C8            3.857000    2.475100    0.000000 C.3      1 SUBUNIT    0.0033
      9 C9            2.921600    3.689700    0.000000 C.3      1 SUBUNIT    0.0279
     10 Cl10          1.852900    3.725100   -1.429200 Cl       1 SUBUNIT   -0.1262
     11 O11           3.786500   -2.451700    0.000400 O.3      1 SUBUNIT   -0.3492
     12 C12           2.897500   -3.569300    0.000300 C.3      1 SUBUNIT    0.0422
     13 H13           2.253100   -3.543300    0.901300 H        1 SUBUNIT    0.0535
     14 H14           2.253600   -3.543600   -0.901000 H        1 SUBUNIT    0.0535
     15 H15           3.474800   -4.515000    0.000700 H        1 SUBUNIT    0.0535
     16 H16           4.884500   -0.049400    0.000000 H        1 SUBUNIT    0.0669
     17 H17           1.121400   -2.180000    0.000000 H        1 SUBUNIT    0.0666
     18 H18           4.522400    2.519300   -0.884900 H        1 SUBUNIT    0.0344
     19 H19           4.522400    2.519300    0.884900 H        1 SUBUNIT    0.0344
     20 H20           3.522000    4.620200    0.037500 H        1 SUBUNIT    0.0439
     21 H21           2.307700    3.685100    0.922300 H        1 SUBUNIT    0.0439
@<TRIPOS>BOND
     1    1    2 1
     2    2    3 2
     3    2    7 1
     4    3    4 1
     5    4    5 2
     6    4    8 1
     7    5    6 1
     8    5   16 1
     9    6    7 2
    10    6   11 1
    11    7   17 1
    12    8    9 1
    13    8   18 1
    14    8   19 1
    15    9   10 1
    16    9   20 1
    17    9   21 1
    18   11   12 1
    19   12   13 1
    20   12   14 1
    21   12   15 1
@<SCITEGIC>ATOM_PROPERTY
Formal Charge
SciTegic.value.StringValue
1 0
2 0
3 0
4 0
5 0
6 0
7 0
8 0
9 0
10 0
11 0
12 0
13 0
14 0
15 0
16 0
17 0
18 0
19 0
20 0
21 0

@<SCITEGIC>ATOM_PROPERTY
pdb_tempFactor
SciTegic.value.DoubleValue
1 0.00
2 0.00
3 0.00
4 0.00
5 0.00
6 0.00
7 0.00
8 0.00
9 0.00
10 0.00
11 0.00
12 0.00
13 0.00
14 0.00
15 0.00
16 0.00
17 0.00
18 0.00
19 0.00
20 0.00
21 0.00

@<SCITEGIC>ATOM_PROPERTY
pdb_occupancy
SciTegic.value.DoubleValue
1 1.00
2 1.00
3 1.00
4 1.00
5 1.00
6 1.00
7 1.00
8 1.00
9 1.00
10 1.00
11 1.00
12 1.00
13 1.00
14 1.00
15 1.00
16 1.00
17 1.00
18 1.00
19 1.00
20 1.00
21 1.00

#	copyright 2023 drugdesign.org
#	Creation time:	2024-01-11T10:58:42Z

@<TRIPOS>MOLECULE
b123.sd
   21    21     0 0 0
SMALL
USER_CHARGES


@<TRIPOS>ATOM
      1 H1            0.000000    0.000000    0.000000 H        1 SUBUNIT    0.0840
      2 C2            1.090000    0.000000    0.000000 C.2      1 SUBUNIT    0.0297
      3 N3            1.759000    1.158700    0.000000 N.2      1 SUBUNIT   -0.2610
      4 C4            3.097000    1.158700    0.000000 C.2      1 SUBUNIT    0.0441
      5 C5            3.794500   -0.049400    0.000000 C.2      1 SUBUNIT   -0.0101
      6 C6            3.097000   -1.257500    0.000000 C.2      1 SUBUNIT    0.0779
      7 C7            1.702000   -1.257500    0.000000 C.2      1 SUBUNIT   -0.0134
      8 C8            3.857000    2.475100    0.000000 C.3      1 SUBUNIT    0.0033
      9 C9            2.921600    3.689700    0.000000 C.3      1 SUBUNIT    0.0279
     10 Cl10          1.852900    3.725100    1.429200 Cl       1 SUBUNIT   -0.1262
     11 O11           3.786500   -2.451700    0.000400 O.3      1 SUBUNIT   -0.3492
     12 C12           2.897500   -3.569300    0.000300 C.3      1 SUBUNIT    0.0422
     13 H13           2.253100   -3.543300    0.901300 H        1 SUBUNIT    0.0535
     14 H14           2.253600   -3.543600   -0.901000 H        1 SUBUNIT    0.0535
     15 H15           3.474800   -4.515000    0.000700 H        1 SUBUNIT    0.0535
     16 H16           4.884500   -0.049400    0.000000 H        1 SUBUNIT    0.0669
     17 H17           1.121400   -2.180000    0.000000 H        1 SUBUNIT    0.0666
     18 H18           4.522400    2.519300   -0.884900 H        1 SUBUNIT    0.0344
     19 H19           4.522400    2.519300    0.884900 H        1 SUBUNIT    0.0344
     20 H20           2.307700    3.685100   -0.922300 H        1 SUBUNIT    0.0439
     21 H21           3.522000    4.620200   -0.037500 H        1 SUBUNIT    0.0439
@<TRIPOS>BOND
     1    1    2 1
     2    2    3 2
     3    2    7 1
     4    3    4 1
     5    4    5 2
     6    4    8 1
     7    5    6 1
     8    5   16 1
     9    6    7 2
    10    6   11 1
    11    7   17 1
    12    8    9 1
    13    8   18 1
    14    8   19 1
    15    9   10 1
    16    9   20 1
    17    9   21 1
    18   11   12 1
    19   12   13 1
    20   12   14 1
    21   12   15 1
@<SCITEGIC>ATOM_PROPERTY
Formal Charge
SciTegic.value.StringValue
1 0
2 0
3 0
4 0
5 0
6 0
7 0
8 0
9 0
10 0
11 0
12 0
13 0
14 0
15 0
16 0
17 0
18 0
19 0
20 0
21 0

@<SCITEGIC>ATOM_PROPERTY
pdb_tempFactor
SciTegic.value.DoubleValue
1 0.00
2 0.00
3 0.00
4 0.00
5 0.00
6 0.00
7 0.00
8 0.00
9 0.00
10 0.00
11 0.00
12 0.00
13 0.00
14 0.00
15 0.00
16 0.00
17 0.00
18 0.00
19 0.00
20 0.00
21 0.00

@<SCITEGIC>ATOM_PROPERTY
pdb_occupancy
SciTegic.value.DoubleValue
1 1.00
2 1.00
3 1.00
4 1.00
5 1.00
6 1.00
7 1.00
8 1.00
9 1.00
10 1.00
11 1.00
12 1.00
13 1.00
14 1.00
15 1.00
16 1.00
17 1.00
18 1.00
19 1.00
20 1.00
21 1.00

#	copyright 2023 drugdesign.org
#	Creation time:	2024-01-11T10:58:42Z

@<TRIPOS>MOLECULE
b123.sd
   21    21     0 0 0
SMALL
USER_CHARGES


@<TRIPOS>ATOM
      1 H1            0.000000    0.000000    0.000000 H        1 SUBUNIT    0.0840
      2 C2            1.090000    0.000000    0.000000 C.2      1 SUBUNIT    0.0297
      3 N3            1.759000    1.158700    0.000000 N.2      1 SUBUNIT   -0.2610
      4 C4            3.097000    1.158700    0.000000 C.2      1 SUBUNIT    0.0441
      5 C5            3.794500   -0.049400    0.000000 C.2      1 SUBUNIT   -0.0101
      6 C6            3.097000   -1.257500    0.000000 C.2      1 SUBUNIT    0.0779
      7 C7            1.702000   -1.257500    0.000000 C.2      1 SUBUNIT   -0.0134
      8 C8            3.857000    2.475100    0.000000 C.3      1 SUBUNIT    0.0033
      9 C9            4.762800    2.626700    1.227400 C.3      1 SUBUNIT    0.0279
     10 Cl10          5.655300    4.172500    1.227400 Cl       1 SUBUNIT   -0.1262
     11 O11           3.786500   -2.451700    0.000400 O.3      1 SUBUNIT   -0.3492
     12 C12           5.198800   -2.240600    0.000800 C.3      1 SUBUNIT    0.0422
     13 H13           5.498800   -1.670000   -0.900300 H        1 SUBUNIT    0.0535
     14 H14           5.498200   -1.669700    0.901900 H        1 SUBUNIT    0.0535
     15 H15           5.729200   -3.213500    0.001100 H        1 SUBUNIT    0.0535
     16 H16           4.884500   -0.049400    0.000000 H        1 SUBUNIT    0.0669
     17 H17           1.121400   -2.180000    0.000000 H        1 SUBUNIT    0.0666
     18 H18           3.138900    3.318100   -0.037500 H        1 SUBUNIT    0.0344
     19 H19           4.466200    2.551700   -0.922300 H        1 SUBUNIT    0.0344
     20 H20           5.480900    1.783700    1.264900 H        1 SUBUNIT    0.0439
     21 H21           4.153600    2.550100    2.149800 H        1 SUBUNIT    0.0439
@<TRIPOS>BOND
     1    1    2 1
     2    2    3 2
     3    2    7 1
     4    3    4 1
     5    4    5 2
     6    4    8 1
     7    5    6 1
     8    5   16 1
     9    6    7 2
    10    6   11 1
    11    7   17 1
    12    8    9 1
    13    8   18 1
    14    8   19 1
    15    9   10 1
    16    9   20 1
    17    9   21 1
    18   11   12 1
    19   12   13 1
    20   12   14 1
    21   12   15 1
@<SCITEGIC>ATOM_PROPERTY
Formal Charge
SciTegic.value.StringValue
1 0
2 0
3 0
4 0
5 0
6 0
7 0
8 0
9 0
10 0
11 0
12 0
13 0
14 0
15 0
16 0
17 0
18 0
19 0
20 0
21 0

@<SCITEGIC>ATOM_PROPERTY
pdb_tempFactor
SciTegic.value.DoubleValue
1 0.00
2 0.00
3 0.00
4 0.00
5 0.00
6 0.00
7 0.00
8 0.00
9 0.00
10 0.00
11 0.00
12 0.00
13 0.00
14 0.00
15 0.00
16 0.00
17 0.00
18 0.00
19 0.00
20 0.00
21 0.00

@<SCITEGIC>ATOM_PROPERTY
pdb_occupancy
SciTegic.value.DoubleValue
1 1.00
2 1.00
3 1.00
4 1.00
5 1.00
6 1.00
7 1.00
8 1.00
9 1.00
10 1.00
11 1.00
12 1.00
13 1.00
14 1.00
15 1.00
16 1.00
17 1.00
18 1.00
19 1.00
20 1.00
21 1.00

#	copyright 2023 drugdesign.org
#	Creation time:	2024-01-11T10:58:42Z

@<TRIPOS>MOLECULE
b123.sd
   21    21     0 0 0
SMALL
USER_CHARGES


@<TRIPOS>ATOM
      1 H1            0.000000    0.000000    0.000000 H        1 SUBUNIT    0.0840
      2 C2            1.090000    0.000000    0.000000 C.2      1 SUBUNIT    0.0297
      3 N3            1.759000    1.158700    0.000000 N.2      1 SUBUNIT   -0.2610
      4 C4            3.097000    1.158700    0.000000 C.2      1 SUBUNIT    0.0441
      5 C5            3.794500   -0.049400    0.000000 C.2      1 SUBUNIT   -0.0101
      6 C6            3.097000   -1.257500    0.000000 C.2      1 SUBUNIT    0.0779
      7 C7            1.702000   -1.257500    0.000000 C.2      1 SUBUNIT   -0.0134
      8 C8            3.857000    2.475100    0.000000 C.3      1 SUBUNIT    0.0033
      9 C9            4.762800    2.626700   -1.227400 C.3      1 SUBUNIT    0.0279
     10 Cl10          5.655700    4.172300   -1.227200 Cl       1 SUBUNIT   -0.1262
     11 O11           3.786500   -2.451700    0.000400 O.3      1 SUBUNIT   -0.3492
     12 C12           5.198800   -2.240600    0.000800 C.3      1 SUBUNIT    0.0422
     13 H13           5.498800   -1.670000   -0.900300 H        1 SUBUNIT    0.0535
     14 H14           5.498200   -1.669700    0.901900 H        1 SUBUNIT    0.0535
     15 H15           5.729200   -3.213500    0.001100 H        1 SUBUNIT    0.0535
     16 H16           4.884500   -0.049400    0.000000 H        1 SUBUNIT    0.0669
     17 H17           1.121400   -2.180000    0.000000 H        1 SUBUNIT    0.0666
     18 H18           4.466200    2.551700    0.922300 H        1 SUBUNIT    0.0344
     19 H19           3.138900    3.318100    0.037500 H        1 SUBUNIT    0.0344
     20 H20           4.153600    2.550400   -2.149800 H        1 SUBUNIT    0.0439
     21 H21           5.480700    1.783500   -1.265100 H        1 SUBUNIT    0.0439
@<TRIPOS>BOND
     1    1    2 1
     2    2    3 2
     3    2    7 1
     4    3    4 1
     5    4    5 2
     6    4    8 1
     7    5    6 1
     8    5   16 1
     9    6    7 2
    10    6   11 1
    11    7   17 1
    12    8    9 1
    13    8   18 1
    14    8   19 1
    15    9   10 1
    16    9   20 1
    17    9   21 1
    18   11   12 1
    19   12   13 1
    20   12   14 1
    21   12   15 1
@<SCITEGIC>ATOM_PROPERTY
Formal Charge
SciTegic.value.StringValue
1 0
2 0
3 0
4 0
5 0
6 0
7 0
8 0
9 0
10 0
11 0
12 0
13 0
14 0
15 0
16 0
17 0
18 0
19 0
20 0
21 0

@<SCITEGIC>ATOM_PROPERTY
pdb_tempFactor
SciTegic.value.DoubleValue
1 0.00
2 0.00
3 0.00
4 0.00
5 0.00
6 0.00
7 0.00
8 0.00
9 0.00
10 0.00
11 0.00
12 0.00
13 0.00
14 0.00
15 0.00
16 0.00
17 0.00
18 0.00
19 0.00
20 0.00
21 0.00

@<SCITEGIC>ATOM_PROPERTY
pdb_occupancy
SciTegic.value.DoubleValue
1 1.00
2 1.00
3 1.00
4 1.00
5 1.00
6 1.00
7 1.00
8 1.00
9 1.00
10 1.00
11 1.00
12 1.00
13 1.00
14 1.00
15 1.00
16 1.00
17 1.00
18 1.00
19 1.00
20 1.00
21 1.00

#	copyright 2023 drugdesign.org
#	Creation time:	2024-01-11T10:58:42Z

@<TRIPOS>MOLECULE
b123.sd
   21    21     0 0 0
SMALL
USER_CHARGES


@<TRIPOS>ATOM
      1 H1            0.000000    0.000000    0.000000 H        1 SUBUNIT    0.0840
      2 C2            1.090000    0.000000    0.000000 C.2      1 SUBUNIT    0.0297
      3 N3            1.759000    1.158700    0.000000 N.2      1 SUBUNIT   -0.2610
      4 C4            3.097000    1.158700    0.000000 C.2      1 SUBUNIT    0.0441
      5 C5            3.794500   -0.049400    0.000000 C.2      1 SUBUNIT   -0.0101
      6 C6            3.097000   -1.257500    0.000000 C.2      1 SUBUNIT    0.0779
      7 C7            1.702000   -1.257500    0.000000 C.2      1 SUBUNIT   -0.0134
      8 C8            3.857000    2.475100    0.000000 C.3      1 SUBUNIT    0.0033
      9 C9            4.762800    2.626700   -1.227400 C.3      1 SUBUNIT    0.0279
     10 Cl10          3.847500    2.573500   -2.759000 Cl       1 SUBUNIT   -0.1262
     11 O11           3.786500   -2.451700    0.000400 O.3      1 SUBUNIT   -0.3492
     12 C12           5.198800   -2.240600    0.000800 C.3      1 SUBUNIT    0.0422
     13 H13           5.498800   -1.670000   -0.900300 H        1 SUBUNIT    0.0535
     14 H14           5.498200   -1.669700    0.901900 H        1 SUBUNIT    0.0535
     15 H15           5.729200   -3.213500    0.001100 H        1 SUBUNIT    0.0535
     16 H16           4.884500   -0.049400    0.000000 H        1 SUBUNIT    0.0669
     17 H17           1.121400   -2.180000    0.000000 H        1 SUBUNIT    0.0666
     18 H18           4.466200    2.551700    0.922300 H        1 SUBUNIT    0.0344
     19 H19           3.138900    3.318100    0.037500 H        1 SUBUNIT    0.0344
     20 H20           5.528300    1.825600   -1.224800 H        1 SUBUNIT    0.0439
     21 H21           5.320300    3.582000   -1.161400 H        1 SUBUNIT    0.0439
@<TRIPOS>BOND
     1    1    2 1
     2    2    3 2
     3    2    7 1
     4    3    4 1
     5    4    5 2
     6    4    8 1
     7    5    6 1
     8    5   16 1
     9    6    7 2
    10    6   11 1
    11    7   17 1
    12    8    9 1
    13    8   18 1
    14    8   19 1
    15    9   10 1
    16    9   20 1
    17    9   21 1
    18   11   12 1
    19   12   13 1
    20   12   14 1
    21   12   15 1
@<SCITEGIC>ATOM_PROPERTY
Formal Charge
SciTegic.value.StringValue
1 0
2 0
3 0
4 0
5 0
6 0
7 0
8 0
9 0
10 0
11 0
12 0
13 0
14 0
15 0
16 0
17 0
18 0
19 0
20 0
21 0

@<SCITEGIC>ATOM_PROPERTY
pdb_tempFactor
SciTegic.value.DoubleValue
1 0.00
2 0.00
3 0.00
4 0.00
5 0.00
6 0.00
7 0.00
8 0.00
9 0.00
10 0.00
11 0.00
12 0.00
13 0.00
14 0.00
15 0.00
16 0.00
17 0.00
18 0.00
19 0.00
20 0.00
21 0.00

@<SCITEGIC>ATOM_PROPERTY
pdb_occupancy
SciTegic.value.DoubleValue
1 1.00
2 1.00
3 1.00
4 1.00
5 1.00
6 1.00
7 1.00
8 1.00
9 1.00
10 1.00
11 1.00
12 1.00
13 1.00
14 1.00
15 1.00
16 1.00
17 1.00
18 1.00
19 1.00
20 1.00
21 1.00

#	copyright 2023 drugdesign.org
#	Creation time:	2024-01-11T10:58:42Z

@<TRIPOS>MOLECULE
b123.sd
   21    21     0 0 0
SMALL
USER_CHARGES


@<TRIPOS>ATOM
      1 H1            0.000000    0.000000    0.000000 H        1 SUBUNIT    0.0840
      2 C2            1.090000    0.000000    0.000000 C.2      1 SUBUNIT    0.0297
      3 N3            1.759000    1.158700    0.000000 N.2      1 SUBUNIT   -0.2610
      4 C4            3.097000    1.158700    0.000000 C.2      1 SUBUNIT    0.0441
      5 C5            3.794500   -0.049400    0.000000 C.2      1 SUBUNIT   -0.0101
      6 C6            3.097000   -1.257500    0.000000 C.2      1 SUBUNIT    0.0779
      7 C7            1.702000   -1.257500    0.000000 C.2      1 SUBUNIT   -0.0134
      8 C8            3.857000    2.475100    0.000000 C.3      1 SUBUNIT    0.0033
      9 C9            4.762800    2.626700    1.227400 C.3      1 SUBUNIT    0.0279
     10 Cl10          3.847500    2.573500    2.759000 Cl       1 SUBUNIT   -0.1262
     11 O11           3.786500   -2.451700    0.000400 O.3      1 SUBUNIT   -0.3492
     12 C12           5.198800   -2.240600    0.000800 C.3      1 SUBUNIT    0.0422
     13 H13           5.498800   -1.670000   -0.900300 H        1 SUBUNIT    0.0535
     14 H14           5.498200   -1.669700    0.901900 H        1 SUBUNIT    0.0535
     15 H15           5.729200   -3.213500    0.001100 H        1 SUBUNIT    0.0535
     16 H16           4.884500   -0.049400    0.000000 H        1 SUBUNIT    0.0669
     17 H17           1.121400   -2.180000    0.000000 H        1 SUBUNIT    0.0666
     18 H18           3.138900    3.318100   -0.037500 H        1 SUBUNIT    0.0344
     19 H19           4.466200    2.551700   -0.922300 H        1 SUBUNIT    0.0344
     20 H20           5.320300    3.582000    1.161400 H        1 SUBUNIT    0.0439
     21 H21           5.528300    1.825600    1.224800 H        1 SUBUNIT    0.0439
@<TRIPOS>BOND
     1    1    2 1
     2    2    3 2
     3    2    7 1
     4    3    4 1
     5    4    5 2
     6    4    8 1
     7    5    6 1
     8    5   16 1
     9    6    7 2
    10    6   11 1
    11    7   17 1
    12    8    9 1
    13    8   18 1
    14    8   19 1
    15    9   10 1
    16    9   20 1
    17    9   21 1
    18   11   12 1
    19   12   13 1
    20   12   14 1
    21   12   15 1
@<SCITEGIC>ATOM_PROPERTY
Formal Charge
SciTegic.value.StringValue
1 0
2 0
3 0
4 0
5 0
6 0
7 0
8 0
9 0
10 0
11 0
12 0
13 0
14 0
15 0
16 0
17 0
18 0
19 0
20 0
21 0

@<SCITEGIC>ATOM_PROPERTY
pdb_tempFactor
SciTegic.value.DoubleValue
1 0.00
2 0.00
3 0.00
4 0.00
5 0.00
6 0.00
7 0.00
8 0.00
9 0.00
10 0.00
11 0.00
12 0.00
13 0.00
14 0.00
15 0.00
16 0.00
17 0.00
18 0.00
19 0.00
20 0.00
21 0.00

@<SCITEGIC>ATOM_PROPERTY
pdb_occupancy
SciTegic.value.DoubleValue
1 1.00
2 1.00
3 1.00
4 1.00
5 1.00
6 1.00
7 1.00
8 1.00
9 1.00
10 1.00
11 1.00
12 1.00
13 1.00
14 1.00
15 1.00
16 1.00
17 1.00
18 1.00
19 1.00
20 1.00
21 1.00

#	copyright 2023 drugdesign.org
#	Creation time:	2024-01-11T10:58:42Z

@<TRIPOS>MOLECULE
b123.sd
   21    21     0 0 0
SMALL
USER_CHARGES


@<TRIPOS>ATOM
      1 H1            0.000000    0.000000    0.000000 H        1 SUBUNIT    0.0840
      2 C2            1.090000    0.000000    0.000000 C.2      1 SUBUNIT    0.0297
      3 N3            1.759000    1.158700    0.000000 N.2      1 SUBUNIT   -0.2610
      4 C4            3.097000    1.158700    0.000000 C.2      1 SUBUNIT    0.0441
      5 C5            3.794500   -0.049400    0.000000 C.2      1 SUBUNIT   -0.0101
      6 C6            3.097000   -1.257500    0.000000 C.2      1 SUBUNIT    0.0779
      7 C7            1.702000   -1.257500    0.000000 C.2      1 SUBUNIT   -0.0134
      8 C8            3.857000    2.475100    0.000000 C.3      1 SUBUNIT    0.0033
      9 C9            3.535400    3.335300    1.227400 C.3      1 SUBUNIT    0.0279
     10 Cl10          1.803100    3.753800    1.329800 Cl       1 SUBUNIT   -0.1262
     11 O11           3.786500   -2.451700    0.000400 O.3      1 SUBUNIT   -0.3492
     12 C12           5.198800   -2.240600    0.000800 C.3      1 SUBUNIT    0.0422
     13 H13           5.498800   -1.670000   -0.900300 H        1 SUBUNIT    0.0535
     14 H14           5.498200   -1.669700    0.901900 H        1 SUBUNIT    0.0535
     15 H15           5.729200   -3.213500    0.001100 H        1 SUBUNIT    0.0535
     16 H16           4.884500   -0.049400    0.000000 H        1 SUBUNIT    0.0669
     17 H17           1.121400   -2.180000    0.000000 H        1 SUBUNIT    0.0666
     18 H18           3.618800    3.041000   -0.922300 H        1 SUBUNIT    0.0344
     19 H19           4.946100    2.274700   -0.037500 H        1 SUBUNIT    0.0344
     20 H20           4.140100    4.263300    1.198900 H        1 SUBUNIT    0.0439
     21 H21           3.842400    2.799000    2.147100 H        1 SUBUNIT    0.0439
@<TRIPOS>BOND
     1    1    2 1
     2    2    3 2
     3    2    7 1
     4    3    4 1
     5    4    5 2
     6    4    8 1
     7    5    6 1
     8    5   16 1
     9    6    7 2
    10    6   11 1
    11    7   17 1
    12    8    9 1
    13    8   18 1
    14    8   19 1
    15    9   10 1
    16    9   20 1
    17    9   21 1
    18   11   12 1
    19   12   13 1
    20   12   14 1
    21   12   15 1
@<SCITEGIC>ATOM_PROPERTY
Formal Charge
SciTegic.value.StringValue
1 0
2 0
3 0
4 0
5 0
6 0
7 0
8 0
9 0
10 0
11 0
12 0
13 0
14 0
15 0
16 0
17 0
18 0
19 0
20 0
21 0

@<SCITEGIC>ATOM_PROPERTY
pdb_tempFactor
SciTegic.value.DoubleValue
1 0.00
2 0.00
3 0.00
4 0.00
5 0.00
6 0.00
7 0.00
8 0.00
9 0.00
10 0.00
11 0.00
12 0.00
13 0.00
14 0.00
15 0.00
16 0.00
17 0.00
18 0.00
19 0.00
20 0.00
21 0.00

@<SCITEGIC>ATOM_PROPERTY
pdb_occupancy
SciTegic.value.DoubleValue
1 1.00
2 1.00
3 1.00
4 1.00
5 1.00
6 1.00
7 1.00
8 1.00
9 1.00
10 1.00
11 1.00
12 1.00
13 1.00
14 1.00
15 1.00
16 1.00
17 1.00
18 1.00
19 1.00
20 1.00
21 1.00

#	copyright 2023 drugdesign.org
#	Creation time:	2024-01-11T10:58:42Z

@<TRIPOS>MOLECULE
b123.sd
   21    21     0 0 0
SMALL
USER_CHARGES


@<TRIPOS>ATOM
      1 H1            0.000000    0.000000    0.000000 H        1 SUBUNIT    0.0840
      2 C2            1.090000    0.000000    0.000000 C.2      1 SUBUNIT    0.0297
      3 N3            1.759000    1.158700    0.000000 N.2      1 SUBUNIT   -0.2610
      4 C4            3.097000    1.158700    0.000000 C.2      1 SUBUNIT    0.0441
      5 C5            3.794500   -0.049400    0.000000 C.2      1 SUBUNIT   -0.0101
      6 C6            3.097000   -1.257500    0.000000 C.2      1 SUBUNIT    0.0779
      7 C7            1.702000   -1.257500    0.000000 C.2      1 SUBUNIT   -0.0134
      8 C8            3.857000    2.475100    0.000000 C.3      1 SUBUNIT    0.0033
      9 C9            3.535400    3.335300   -1.227400 C.3      1 SUBUNIT    0.0279
     10 Cl10          1.803100    3.753800   -1.329800 Cl       1 SUBUNIT   -0.1262
     11 O11           3.786500   -2.451700    0.000400 O.3      1 SUBUNIT   -0.3492
     12 C12           5.198800   -2.240600    0.000800 C.3      1 SUBUNIT    0.0422
     13 H13           5.498800   -1.670000   -0.900300 H        1 SUBUNIT    0.0535
     14 H14           5.498200   -1.669700    0.901900 H        1 SUBUNIT    0.0535
     15 H15           5.729200   -3.213500    0.001100 H        1 SUBUNIT    0.0535
     16 H16           4.884500   -0.049400    0.000000 H        1 SUBUNIT    0.0669
     17 H17           1.121400   -2.180000    0.000000 H        1 SUBUNIT    0.0666
     18 H18           4.946100    2.274700    0.037500 H        1 SUBUNIT    0.0344
     19 H19           3.618800    3.041000    0.922300 H        1 SUBUNIT    0.0344
     20 H20           3.842400    2.799000   -2.147100 H        1 SUBUNIT    0.0439
     21 H21           4.140100    4.263300   -1.198900 H        1 SUBUNIT    0.0439
@<TRIPOS>BOND
     1    1    2 1
     2    2    3 2
     3    2    7 1
     4    3    4 1
     5    4    5 2
     6    4    8 1
     7    5    6 1
     8    5   16 1
     9    6    7 2
    10    6   11 1
    11    7   17 1
    12    8    9 1
    13    8   18 1
    14    8   19 1
    15    9   10 1
    16    9   20 1
    17    9   21 1
    18   11   12 1
    19   12   13 1
    20   12   14 1
    21   12   15 1
@<SCITEGIC>ATOM_PROPERTY
Formal Charge
SciTegic.value.StringValue
1 0
2 0
3 0
4 0
5 0
6 0
7 0
8 0
9 0
10 0
11 0
12 0
13 0
14 0
15 0
16 0
17 0
18 0
19 0
20 0
21 0

@<SCITEGIC>ATOM_PROPERTY
pdb_tempFactor
SciTegic.value.DoubleValue
1 0.00
2 0.00
3 0.00
4 0.00
5 0.00
6 0.00
7 0.00
8 0.00
9 0.00
10 0.00
11 0.00
12 0.00
13 0.00
14 0.00
15 0.00
16 0.00
17 0.00
18 0.00
19 0.00
20 0.00
21 0.00

@<SCITEGIC>ATOM_PROPERTY
pdb_occupancy
SciTegic.value.DoubleValue
1 1.00
2 1.00
3 1.00
4 1.00
5 1.00
6 1.00
7 1.00
8 1.00
9 1.00
10 1.00
11 1.00
12 1.00
13 1.00
14 1.00
15 1.00
16 1.00
17 1.00
18 1.00
19 1.00
20 1.00
21 1.00

#	copyright 2023 drugdesign.org
#	Creation time:	2024-01-11T10:58:42Z

@<TRIPOS>MOLECULE
b123.sd
   21    21     0 0 0
SMALL
USER_CHARGES


@<TRIPOS>ATOM
      1 H1            0.000000    0.000000    0.000000 H        1 SUBUNIT    0.0840
      2 C2            1.090000    0.000000    0.000000 C.2      1 SUBUNIT    0.0297
      3 N3            1.759000    1.158700    0.000000 N.2      1 SUBUNIT   -0.2610
      4 C4            3.097000    1.158700    0.000000 C.2      1 SUBUNIT    0.0441
      5 C5            3.794500   -0.049400    0.000000 C.2      1 SUBUNIT   -0.0101
      6 C6            3.097000   -1.257500    0.000000 C.2      1 SUBUNIT    0.0779
      7 C7            1.702000   -1.257500    0.000000 C.2      1 SUBUNIT   -0.0134
      8 C8            3.857000    2.475100    0.000000 C.3      1 SUBUNIT    0.0033
      9 C9            2.921600    3.689700    0.000000 C.3      1 SUBUNIT    0.0279
     10 Cl10          3.814100    5.235500    0.000000 Cl       1 SUBUNIT   -0.1262
     11 O11           3.786500   -2.451700    0.000400 O.3      1 SUBUNIT   -0.3492
     12 C12           5.198800   -2.240600    0.000800 C.3      1 SUBUNIT    0.0422
     13 H13           5.498800   -1.670000   -0.900300 H        1 SUBUNIT    0.0535
     14 H14           5.498200   -1.669700    0.901900 H        1 SUBUNIT    0.0535
     15 H15           5.729200   -3.213500    0.001100 H        1 SUBUNIT    0.0535
     16 H16           4.884500   -0.049400    0.000000 H        1 SUBUNIT    0.0669
     17 H17           1.121400   -2.180000    0.000000 H        1 SUBUNIT    0.0666
     18 H18           4.522400    2.519300   -0.884900 H        1 SUBUNIT    0.0344
     19 H19           4.522400    2.519300    0.884900 H        1 SUBUNIT    0.0344
     20 H20           2.256300    3.645500    0.884900 H        1 SUBUNIT    0.0439
     21 H21           2.256300    3.645500   -0.884900 H        1 SUBUNIT    0.0439
@<TRIPOS>BOND
     1    1    2 1
     2    2    3 2
     3    2    7 1
     4    3    4 1
     5    4    5 2
     6    4    8 1
     7    5    6 1
     8    5   16 1
     9    6    7 2
    10    6   11 1
    11    7   17 1
    12    8    9 1
    13    8   18 1
    14    8   19 1
    15    9   10 1
    16    9   20 1
    17    9   21 1
    18   11   12 1
    19   12   13 1
    20   12   14 1
    21   12   15 1
@<SCITEGIC>ATOM_PROPERTY
Formal Charge
SciTegic.value.StringValue
1 0
2 0
3 0
4 0
5 0
6 0
7 0
8 0
9 0
10 0
11 0
12 0
13 0
14 0
15 0
16 0
17 0
18 0
19 0
20 0
21 0

@<SCITEGIC>ATOM_PROPERTY
pdb_tempFactor
SciTegic.value.DoubleValue
1 0.00
2 0.00
3 0.00
4 0.00
5 0.00
6 0.00
7 0.00
8 0.00
9 0.00
10 0.00
11 0.00
12 0.00
13 0.00
14 0.00
15 0.00
16 0.00
17 0.00
18 0.00
19 0.00
20 0.00
21 0.00

@<SCITEGIC>ATOM_PROPERTY
pdb_occupancy
SciTegic.value.DoubleValue
1 1.00
2 1.00
3 1.00
4 1.00
5 1.00
6 1.00
7 1.00
8 1.00
9 1.00
10 1.00
11 1.00
12 1.00
13 1.00
14 1.00
15 1.00
16 1.00
17 1.00
18 1.00
19 1.00
20 1.00
21 1.00

#	copyright 2023 drugdesign.org
#	Creation time:	2024-01-11T10:58:42Z

@<TRIPOS>MOLECULE
b123.sd
   21    21     0 0 0
SMALL
USER_CHARGES


@<TRIPOS>ATOM
      1 H1            0.000000    0.000000    0.000000 H        1 SUBUNIT    0.0840
      2 C2            1.090000    0.000000    0.000000 C.2      1 SUBUNIT    0.0297
      3 N3            1.759000    1.158700    0.000000 N.2      1 SUBUNIT   -0.2610
      4 C4            3.097000    1.158700    0.000000 C.2      1 SUBUNIT    0.0441
      5 C5            3.794500   -0.049400    0.000000 C.2      1 SUBUNIT   -0.0101
      6 C6            3.097000   -1.257500    0.000000 C.2      1 SUBUNIT    0.0779
      7 C7            1.702000   -1.257500    0.000000 C.2      1 SUBUNIT   -0.0134
      8 C8            3.857000    2.475100    0.000000 C.3      1 SUBUNIT    0.0033
      9 C9            2.921600    3.689700    0.000000 C.3      1 SUBUNIT    0.0279
     10 Cl10          1.852900    3.725100    1.429200 Cl       1 SUBUNIT   -0.1262
     11 O11           3.786500   -2.451700    0.000400 O.3      1 SUBUNIT   -0.3492
     12 C12           5.198800   -2.240600    0.000800 C.3      1 SUBUNIT    0.0422
     13 H13           5.498800   -1.670000   -0.900300 H        1 SUBUNIT    0.0535
     14 H14           5.498200   -1.669700    0.901900 H        1 SUBUNIT    0.0535
     15 H15           5.729200   -3.213500    0.001100 H        1 SUBUNIT    0.0535
     16 H16           4.884500   -0.049400    0.000000 H        1 SUBUNIT    0.0669
     17 H17           1.121400   -2.180000    0.000000 H        1 SUBUNIT    0.0666
     18 H18           4.522400    2.519300   -0.884900 H        1 SUBUNIT    0.0344
     19 H19           4.522400    2.519300    0.884900 H        1 SUBUNIT    0.0344
     20 H20           2.307700    3.685100   -0.922300 H        1 SUBUNIT    0.0439
     21 H21           3.522000    4.620200   -0.037500 H        1 SUBUNIT    0.0439
@<TRIPOS>BOND
     1    1    2 1
     2    2    3 2
     3    2    7 1
     4    3    4 1
     5    4    5 2
     6    4    8 1
     7    5    6 1
     8    5   16 1
     9    6    7 2
    10    6   11 1
    11    7   17 1
    12    8    9 1
    13    8   18 1
    14    8   19 1
    15    9   10 1
    16    9   20 1
    17    9   21 1
    18   11   12 1
    19   12   13 1
    20   12   14 1
    21   12   15 1
@<SCITEGIC>ATOM_PROPERTY
Formal Charge
SciTegic.value.StringValue
1 0
2 0
3 0
4 0
5 0
6 0
7 0
8 0
9 0
10 0
11 0
12 0
13 0
14 0
15 0
16 0
17 0
18 0
19 0
20 0
21 0

@<SCITEGIC>ATOM_PROPERTY
pdb_tempFactor
SciTegic.value.DoubleValue
1 0.00
2 0.00
3 0.00
4 0.00
5 0.00
6 0.00
7 0.00
8 0.00
9 0.00
10 0.00
11 0.00
12 0.00
13 0.00
14 0.00
15 0.00
16 0.00
17 0.00
18 0.00
19 0.00
20 0.00
21 0.00

@<SCITEGIC>ATOM_PROPERTY
pdb_occupancy
SciTegic.value.DoubleValue
1 1.00
2 1.00
3 1.00
4 1.00
5 1.00
6 1.00
7 1.00
8 1.00
9 1.00
10 1.00
11 1.00
12 1.00
13 1.00
14 1.00
15 1.00
16 1.00
17 1.00
18 1.00
19 1.00
20 1.00
21 1.00

#	copyright 2023 drugdesign.org
#	Creation time:	2024-01-11T10:58:42Z

@<TRIPOS>MOLECULE
b123.sd
   21    21     0 0 0
SMALL
USER_CHARGES


@<TRIPOS>ATOM
      1 H1            0.000000    0.000000    0.000000 H        1 SUBUNIT    0.0840
      2 C2            1.090000    0.000000    0.000000 C.2      1 SUBUNIT    0.0297
      3 N3            1.759000    1.158700    0.000000 N.2      1 SUBUNIT   -0.2610
      4 C4            3.097000    1.158700    0.000000 C.2      1 SUBUNIT    0.0441
      5 C5            3.794500   -0.049400    0.000000 C.2      1 SUBUNIT   -0.0101
      6 C6            3.097000   -1.257500    0.000000 C.2      1 SUBUNIT    0.0779
      7 C7            1.702000   -1.257500    0.000000 C.2      1 SUBUNIT   -0.0134
      8 C8            3.857000    2.475100    0.000000 C.3      1 SUBUNIT    0.0033
      9 C9            2.921600    3.689700    0.000000 C.3      1 SUBUNIT    0.0279
     10 Cl10          1.852900    3.725100   -1.429200 Cl       1 SUBUNIT   -0.1262
     11 O11           3.786500   -2.451700    0.000400 O.3      1 SUBUNIT   -0.3492
     12 C12           5.198800   -2.240600    0.000800 C.3      1 SUBUNIT    0.0422
     13 H13           5.498800   -1.670000   -0.900300 H        1 SUBUNIT    0.0535
     14 H14           5.498200   -1.669700    0.901900 H        1 SUBUNIT    0.0535
     15 H15           5.729200   -3.213500    0.001100 H        1 SUBUNIT    0.0535
     16 H16           4.884500   -0.049400    0.000000 H        1 SUBUNIT    0.0669
     17 H17           1.121400   -2.180000    0.000000 H        1 SUBUNIT    0.0666
     18 H18           4.522400    2.519300   -0.884900 H        1 SUBUNIT    0.0344
     19 H19           4.522400    2.519300    0.884900 H        1 SUBUNIT    0.0344
     20 H20           3.522000    4.620200    0.037500 H        1 SUBUNIT    0.0439
     21 H21           2.307700    3.685100    0.922300 H        1 SUBUNIT    0.0439
@<TRIPOS>BOND
     1    1    2 1
     2    2    3 2
     3    2    7 1
     4    3    4 1
     5    4    5 2
     6    4    8 1
     7    5    6 1
     8    5   16 1
     9    6    7 2
    10    6   11 1
    11    7   17 1
    12    8    9 1
    13    8   18 1
    14    8   19 1
    15    9   10 1
    16    9   20 1
    17    9   21 1
    18   11   12 1
    19   12   13 1
    20   12   14 1
    21   12   15 1
@<SCITEGIC>ATOM_PROPERTY
Formal Charge
SciTegic.value.StringValue
1 0
2 0
3 0
4 0
5 0
6 0
7 0
8 0
9 0
10 0
11 0
12 0
13 0
14 0
15 0
16 0
17 0
18 0
19 0
20 0
21 0

@<SCITEGIC>ATOM_PROPERTY
pdb_tempFactor
SciTegic.value.DoubleValue
1 0.00
2 0.00
3 0.00
4 0.00
5 0.00
6 0.00
7 0.00
8 0.00
9 0.00
10 0.00
11 0.00
12 0.00
13 0.00
14 0.00
15 0.00
16 0.00
17 0.00
18 0.00
19 0.00
20 0.00
21 0.00

@<SCITEGIC>ATOM_PROPERTY
pdb_occupancy
SciTegic.value.DoubleValue
1 1.00
2 1.00
3 1.00
4 1.00
5 1.00
6 1.00
7 1.00
8 1.00
9 1.00
10 1.00
11 1.00
12 1.00
13 1.00
14 1.00
15 1.00
16 1.00
17 1.00
18 1.00
19 1.00
20 1.00
21 1.00

#	copyright 2023 drugdesign.org
#	Creation time:	2024-01-11T10:58:42Z

@<TRIPOS>MOLECULE
b123.sd
   21    21     0 0 0
SMALL
USER_CHARGES


@<TRIPOS>ATOM
      1 H1            0.000000    0.000000    0.000000 H        1 SUBUNIT    0.0840
      2 C2            1.090000    0.000000    0.000000 C.2      1 SUBUNIT    0.0297
      3 N3            1.759000    1.158700    0.000000 N.2      1 SUBUNIT   -0.2610
      4 C4            3.097000    1.158700    0.000000 C.2      1 SUBUNIT    0.0441
      5 C5            3.794500   -0.049400    0.000000 C.2      1 SUBUNIT   -0.0101
      6 C6            3.097000   -1.257500    0.000000 C.2      1 SUBUNIT    0.0779
      7 C7            1.702000   -1.257500    0.000000 C.2      1 SUBUNIT   -0.0134
      8 C8            3.857000    2.475100    0.000000 C.3      1 SUBUNIT    0.0033
      9 C9            4.762800    2.626700   -1.227400 C.3      1 SUBUNIT    0.0279
     10 Cl10          5.991400    1.335800   -1.329800 Cl       1 SUBUNIT   -0.1262
     11 O11           3.786500   -2.451700    0.000400 O.3      1 SUBUNIT   -0.3492
     12 C12           2.897500   -3.569300    0.000300 C.3      1 SUBUNIT    0.0422
     13 H13           2.253100   -3.543300    0.901300 H        1 SUBUNIT    0.0535
     14 H14           2.253600   -3.543600   -0.901000 H        1 SUBUNIT    0.0535
     15 H15           3.474800   -4.515000    0.000700 H        1 SUBUNIT    0.0535
     16 H16           4.884500   -0.049400    0.000000 H        1 SUBUNIT    0.0669
     17 H17           1.121400   -2.180000    0.000000 H        1 SUBUNIT    0.0666
     18 H18           4.466200    2.551700    0.922300 H        1 SUBUNIT    0.0344
     19 H19           3.138900    3.318100    0.037500 H        1 SUBUNIT    0.0344
     20 H20           5.264100    3.614400   -1.198900 H        1 SUBUNIT    0.0439
     21 H21           4.144800    2.624400   -2.147100 H        1 SUBUNIT    0.0439
@<TRIPOS>BOND
     1    1    2 1
     2    2    3 2
     3    2    7 1
     4    3    4 1
     5    4    5 2
     6    4    8 1
     7    5    6 1
     8    5   16 1
     9    6    7 2
    10    6   11 1
    11    7   17 1
    12    8    9 1
    13    8   18 1
    14    8   19 1
    15    9   10 1
    16    9   20 1
    17    9   21 1
    18   11   12 1
    19   12   13 1
    20   12   14 1
    21   12   15 1
@<SCITEGIC>ATOM_PROPERTY
Formal Charge
SciTegic.value.StringValue
1 0
2 0
3 0
4 0
5 0
6 0
7 0
8 0
9 0
10 0
11 0
12 0
13 0
14 0
15 0
16 0
17 0
18 0
19 0
20 0
21 0

@<SCITEGIC>ATOM_PROPERTY
pdb_tempFactor
SciTegic.value.DoubleValue
1 0.00
2 0.00
3 0.00
4 0.00
5 0.00
6 0.00
7 0.00
8 0.00
9 0.00
10 0.00
11 0.00
12 0.00
13 0.00
14 0.00
15 0.00
16 0.00
17 0.00
18 0.00
19 0.00
20 0.00
21 0.00

@<SCITEGIC>ATOM_PROPERTY
pdb_occupancy
SciTegic.value.DoubleValue
1 1.00
2 1.00
3 1.00
4 1.00
5 1.00
6 1.00
7 1.00
8 1.00
9 1.00
10 1.00
11 1.00
12 1.00
13 1.00
14 1.00
15 1.00
16 1.00
17 1.00
18 1.00
19 1.00
20 1.00
21 1.00

#	copyright 2023 drugdesign.org
#	Creation time:	2024-01-11T10:58:42Z

@<TRIPOS>MOLECULE
b123.sd
   21    21     0 0 0
SMALL
USER_CHARGES


@<TRIPOS>ATOM
      1 H1            0.000000    0.000000    0.000000 H        1 SUBUNIT    0.0840
      2 C2            1.090000    0.000000    0.000000 C.2      1 SUBUNIT    0.0297
      3 N3            1.759000    1.158700    0.000000 N.2      1 SUBUNIT   -0.2610
      4 C4            3.097000    1.158700    0.000000 C.2      1 SUBUNIT    0.0441
      5 C5            3.794500   -0.049400    0.000000 C.2      1 SUBUNIT   -0.0101
      6 C6            3.097000   -1.257500    0.000000 C.2      1 SUBUNIT    0.0779
      7 C7            1.702000   -1.257500    0.000000 C.2      1 SUBUNIT   -0.0134
      8 C8            3.857000    2.475100    0.000000 C.3      1 SUBUNIT    0.0033
      9 C9            4.762800    2.626700    1.227400 C.3      1 SUBUNIT    0.0279
     10 Cl10          5.991400    1.335800    1.329800 Cl       1 SUBUNIT   -0.1262
     11 O11           3.786500   -2.451700    0.000400 O.3      1 SUBUNIT   -0.3492
     12 C12           2.897500   -3.569300    0.000300 C.3      1 SUBUNIT    0.0422
     13 H13           2.253100   -3.543300    0.901300 H        1 SUBUNIT    0.0535
     14 H14           2.253600   -3.543600   -0.901000 H        1 SUBUNIT    0.0535
     15 H15           3.474800   -4.515000    0.000700 H        1 SUBUNIT    0.0535
     16 H16           4.884500   -0.049400    0.000000 H        1 SUBUNIT    0.0669
     17 H17           1.121400   -2.180000    0.000000 H        1 SUBUNIT    0.0666
     18 H18           3.138900    3.318100   -0.037500 H        1 SUBUNIT    0.0344
     19 H19           4.466200    2.551700   -0.922300 H        1 SUBUNIT    0.0344
     20 H20           4.144800    2.624400    2.147100 H        1 SUBUNIT    0.0439
     21 H21           5.264100    3.614400    1.198900 H        1 SUBUNIT    0.0439
@<TRIPOS>BOND
     1    1    2 1
     2    2    3 2
     3    2    7 1
     4    3    4 1
     5    4    5 2
     6    4    8 1
     7    5    6 1
     8    5   16 1
     9    6    7 2
    10    6   11 1
    11    7   17 1
    12    8    9 1
    13    8   18 1
    14    8   19 1
    15    9   10 1
    16    9   20 1
    17    9   21 1
    18   11   12 1
    19   12   13 1
    20   12   14 1
    21   12   15 1
@<SCITEGIC>ATOM_PROPERTY
Formal Charge
SciTegic.value.StringValue
1 0
2 0
3 0
4 0
5 0
6 0
7 0
8 0
9 0
10 0
11 0
12 0
13 0
14 0
15 0
16 0
17 0
18 0
19 0
20 0
21 0

@<SCITEGIC>ATOM_PROPERTY
pdb_tempFactor
SciTegic.value.DoubleValue
1 0.00
2 0.00
3 0.00
4 0.00
5 0.00
6 0.00
7 0.00
8 0.00
9 0.00
10 0.00
11 0.00
12 0.00
13 0.00
14 0.00
15 0.00
16 0.00
17 0.00
18 0.00
19 0.00
20 0.00
21 0.00

@<SCITEGIC>ATOM_PROPERTY
pdb_occupancy
SciTegic.value.DoubleValue
1 1.00
2 1.00
3 1.00
4 1.00
5 1.00
6 1.00
7 1.00
8 1.00
9 1.00
10 1.00
11 1.00
12 1.00
13 1.00
14 1.00
15 1.00
16 1.00
17 1.00
18 1.00
19 1.00
20 1.00
21 1.00

#	copyright 2023 drugdesign.org
#	Creation time:	2024-01-11T10:58:42Z

@<TRIPOS>MOLECULE
b123.sd
   21    21     0 0 0
SMALL
USER_CHARGES


@<TRIPOS>ATOM
      1 H1            0.000000    0.000000    0.000000 H        1 SUBUNIT    0.0840
      2 C2            1.090000    0.000000    0.000000 C.2      1 SUBUNIT    0.0297
      3 N3            1.759000    1.158700    0.000000 N.2      1 SUBUNIT   -0.2610
      4 C4            3.097000    1.158700    0.000000 C.2      1 SUBUNIT    0.0441
      5 C5            3.794500   -0.049400    0.000000 C.2      1 SUBUNIT   -0.0101
      6 C6            3.097000   -1.257500    0.000000 C.2      1 SUBUNIT    0.0779
      7 C7            1.702000   -1.257500    0.000000 C.2      1 SUBUNIT   -0.0134
      8 C8            3.857000    2.475100    0.000000 C.3      1 SUBUNIT    0.0033
      9 C9            4.762800    2.626700   -1.227400 C.3      1 SUBUNIT    0.0279
     10 Cl10          5.991400    1.335800   -1.329800 Cl       1 SUBUNIT   -0.1262
     11 O11           3.786500   -2.451700    0.000400 O.3      1 SUBUNIT   -0.3492
     12 C12           5.198800   -2.240600    0.000800 C.3      1 SUBUNIT    0.0422
     13 H13           5.498800   -1.670000   -0.900300 H        1 SUBUNIT    0.0535
     14 H14           5.498200   -1.669700    0.901900 H        1 SUBUNIT    0.0535
     15 H15           5.729200   -3.213500    0.001100 H        1 SUBUNIT    0.0535
     16 H16           4.884500   -0.049400    0.000000 H        1 SUBUNIT    0.0669
     17 H17           1.121400   -2.180000    0.000000 H        1 SUBUNIT    0.0666
     18 H18           4.466200    2.551700    0.922300 H        1 SUBUNIT    0.0344
     19 H19           3.138900    3.318100    0.037500 H        1 SUBUNIT    0.0344
     20 H20           5.264100    3.614400   -1.198900 H        1 SUBUNIT    0.0439
     21 H21           4.144800    2.624400   -2.147100 H        1 SUBUNIT    0.0439
@<TRIPOS>BOND
     1    1    2 1
     2    2    3 2
     3    2    7 1
     4    3    4 1
     5    4    5 2
     6    4    8 1
     7    5    6 1
     8    5   16 1
     9    6    7 2
    10    6   11 1
    11    7   17 1
    12    8    9 1
    13    8   18 1
    14    8   19 1
    15    9   10 1
    16    9   20 1
    17    9   21 1
    18   11   12 1
    19   12   13 1
    20   12   14 1
    21   12   15 1
@<SCITEGIC>ATOM_PROPERTY
Formal Charge
SciTegic.value.StringValue
1 0
2 0
3 0
4 0
5 0
6 0
7 0
8 0
9 0
10 0
11 0
12 0
13 0
14 0
15 0
16 0
17 0
18 0
19 0
20 0
21 0

@<SCITEGIC>ATOM_PROPERTY
pdb_tempFactor
SciTegic.value.DoubleValue
1 0.00
2 0.00
3 0.00
4 0.00
5 0.00
6 0.00
7 0.00
8 0.00
9 0.00
10 0.00
11 0.00
12 0.00
13 0.00
14 0.00
15 0.00
16 0.00
17 0.00
18 0.00
19 0.00
20 0.00
21 0.00

@<SCITEGIC>ATOM_PROPERTY
pdb_occupancy
SciTegic.value.DoubleValue
1 1.00
2 1.00
3 1.00
4 1.00
5 1.00
6 1.00
7 1.00
8 1.00
9 1.00
10 1.00
11 1.00
12 1.00
13 1.00
14 1.00
15 1.00
16 1.00
17 1.00
18 1.00
19 1.00
20 1.00
21 1.00

#	copyright 2023 drugdesign.org
#	Creation time:	2024-01-11T10:58:42Z

@<TRIPOS>MOLECULE
b123.sd
   21    21     0 0 0
SMALL
USER_CHARGES


@<TRIPOS>ATOM
      1 H1            0.000000    0.000000    0.000000 H        1 SUBUNIT    0.0840
      2 C2            1.090000    0.000000    0.000000 C.2      1 SUBUNIT    0.0297
      3 N3            1.759000    1.158700    0.000000 N.2      1 SUBUNIT   -0.2610
      4 C4            3.097000    1.158700    0.000000 C.2      1 SUBUNIT    0.0441
      5 C5            3.794500   -0.049400    0.000000 C.2      1 SUBUNIT   -0.0101
      6 C6            3.097000   -1.257500    0.000000 C.2      1 SUBUNIT    0.0779
      7 C7            1.702000   -1.257500    0.000000 C.2      1 SUBUNIT   -0.0134
      8 C8            3.857000    2.475100    0.000000 C.3      1 SUBUNIT    0.0033
      9 C9            4.762800    2.626700    1.227400 C.3      1 SUBUNIT    0.0279
     10 Cl10          5.991400    1.335800    1.329800 Cl       1 SUBUNIT   -0.1262
     11 O11           3.786500   -2.451700    0.000400 O.3      1 SUBUNIT   -0.3492
     12 C12           5.198800   -2.240600    0.000800 C.3      1 SUBUNIT    0.0422
     13 H13           5.498800   -1.670000   -0.900300 H        1 SUBUNIT    0.0535
     14 H14           5.498200   -1.669700    0.901900 H        1 SUBUNIT    0.0535
     15 H15           5.729200   -3.213500    0.001100 H        1 SUBUNIT    0.0535
     16 H16           4.884500   -0.049400    0.000000 H        1 SUBUNIT    0.0669
     17 H17           1.121400   -2.180000    0.000000 H        1 SUBUNIT    0.0666
     18 H18           3.138900    3.318100   -0.037500 H        1 SUBUNIT    0.0344
     19 H19           4.466200    2.551700   -0.922300 H        1 SUBUNIT    0.0344
     20 H20           4.144800    2.624400    2.147100 H        1 SUBUNIT    0.0439
     21 H21           5.264100    3.614400    1.198900 H        1 SUBUNIT    0.0439
@<TRIPOS>BOND
     1    1    2 1
     2    2    3 2
     3    2    7 1
     4    3    4 1
     5    4    5 2
     6    4    8 1
     7    5    6 1
     8    5   16 1
     9    6    7 2
    10    6   11 1
    11    7   17 1
    12    8    9 1
    13    8   18 1
    14    8   19 1
    15    9   10 1
    16    9   20 1
    17    9   21 1
    18   11   12 1
    19   12   13 1
    20   12   14 1
    21   12   15 1
@<SCITEGIC>ATOM_PROPERTY
Formal Charge
SciTegic.value.StringValue
1 0
2 0
3 0
4 0
5 0
6 0
7 0
8 0
9 0
10 0
11 0
12 0
13 0
14 0
15 0
16 0
17 0
18 0
19 0
20 0
21 0

@<SCITEGIC>ATOM_PROPERTY
pdb_tempFactor
SciTegic.value.DoubleValue
1 0.00
2 0.00
3 0.00
4 0.00
5 0.00
6 0.00
7 0.00
8 0.00
9 0.00
10 0.00
11 0.00
12 0.00
13 0.00
14 0.00
15 0.00
16 0.00
17 0.00
18 0.00
19 0.00
20 0.00
21 0.00

@<SCITEGIC>ATOM_PROPERTY
pdb_occupancy
SciTegic.value.DoubleValue
1 1.00
2 1.00
3 1.00
4 1.00
5 1.00
6 1.00
7 1.00
8 1.00
9 1.00
10 1.00
11 1.00
12 1.00
13 1.00
14 1.00
15 1.00
16 1.00
17 1.00
18 1.00
19 1.00
20 1.00
21 1.00

#	copyright 2023 drugdesign.org
#	Creation time:	2024-01-11T10:58:42Z

@<TRIPOS>MOLECULE
b123.sd
   21    21     0 0 0
SMALL
USER_CHARGES


@<TRIPOS>ATOM
      1 H1            0.000000    0.000000    0.000000 H        1 SUBUNIT    0.0840
      2 C2            1.090000    0.000000    0.000000 C.2      1 SUBUNIT    0.0297
      3 N3            1.759000    1.158700    0.000000 N.2      1 SUBUNIT   -0.2610
      4 C4            3.097000    1.158700    0.000000 C.2      1 SUBUNIT    0.0441
      5 C5            3.794500   -0.049400    0.000000 C.2      1 SUBUNIT   -0.0101
      6 C6            3.097000   -1.257500    0.000000 C.2      1 SUBUNIT    0.0779
      7 C7            1.702000   -1.257500    0.000000 C.2      1 SUBUNIT   -0.0134
      8 C8            3.857000    2.475100    0.000000 C.3      1 SUBUNIT    0.0033
      9 C9            5.376500    2.272400   -0.000500 C.3      1 SUBUNIT    0.0279
     10 Cl10          6.269000    3.818200   -0.000500 Cl       1 SUBUNIT   -0.1262
     11 O11           3.786500   -2.451700    0.000400 O.3      1 SUBUNIT   -0.3492
     12 C12           2.897500   -3.569300    0.000300 C.3      1 SUBUNIT    0.0422
     13 H13           2.253100   -3.543300    0.901300 H        1 SUBUNIT    0.0535
     14 H14           2.253600   -3.543600   -0.901000 H        1 SUBUNIT    0.0535
     15 H15           3.474800   -4.515000    0.000700 H        1 SUBUNIT    0.0535
     16 H16           4.884500   -0.049400    0.000000 H        1 SUBUNIT    0.0669
     17 H17           1.121400   -2.180000    0.000000 H        1 SUBUNIT    0.0666
     18 H18           3.562900    3.073300    0.885100 H        1 SUBUNIT    0.0344
     19 H19           3.562300    3.073600   -0.884700 H        1 SUBUNIT    0.0344
     20 H20           5.670700    1.674200   -0.885600 H        1 SUBUNIT    0.0439
     21 H21           5.671200    1.673900    0.884200 H        1 SUBUNIT    0.0439
@<TRIPOS>BOND
     1    1    2 1
     2    2    3 2
     3    2    7 1
     4    3    4 1
     5    4    5 2
     6    4    8 1
     7    5    6 1
     8    5   16 1
     9    6    7 2
    10    6   11 1
    11    7   17 1
    12    8    9 1
    13    8   18 1
    14    8   19 1
    15    9   10 1
    16    9   20 1
    17    9   21 1
    18   11   12 1
    19   12   13 1
    20   12   14 1
    21   12   15 1
@<SCITEGIC>ATOM_PROPERTY
Formal Charge
SciTegic.value.StringValue
1 0
2 0
3 0
4 0
5 0
6 0
7 0
8 0
9 0
10 0
11 0
12 0
13 0
14 0
15 0
16 0
17 0
18 0
19 0
20 0
21 0

@<SCITEGIC>ATOM_PROPERTY
pdb_tempFactor
SciTegic.value.DoubleValue
1 0.00
2 0.00
3 0.00
4 0.00
5 0.00
6 0.00
7 0.00
8 0.00
9 0.00
10 0.00
11 0.00
12 0.00
13 0.00
14 0.00
15 0.00
16 0.00
17 0.00
18 0.00
19 0.00
20 0.00
21 0.00

@<SCITEGIC>ATOM_PROPERTY
pdb_occupancy
SciTegic.value.DoubleValue
1 1.00
2 1.00
3 1.00
4 1.00
5 1.00
6 1.00
7 1.00
8 1.00
9 1.00
10 1.00
11 1.00
12 1.00
13 1.00
14 1.00
15 1.00
16 1.00
17 1.00
18 1.00
19 1.00
20 1.00
21 1.00

#	copyright 2023 drugdesign.org
#	Creation time:	2024-01-11T10:58:42Z

@<TRIPOS>MOLECULE
b123.sd
   21    21     0 0 0
SMALL
USER_CHARGES


@<TRIPOS>ATOM
      1 H1            0.000000    0.000000    0.000000 H        1 SUBUNIT    0.0840
      2 C2            1.090000    0.000000    0.000000 C.2      1 SUBUNIT    0.0297
      3 N3            1.759000    1.158700    0.000000 N.2      1 SUBUNIT   -0.2610
      4 C4            3.097000    1.158700    0.000000 C.2      1 SUBUNIT    0.0441
      5 C5            3.794500   -0.049400    0.000000 C.2      1 SUBUNIT   -0.0101
      6 C6            3.097000   -1.257500    0.000000 C.2      1 SUBUNIT    0.0779
      7 C7            1.702000   -1.257500    0.000000 C.2      1 SUBUNIT   -0.0134
      8 C8            3.857000    2.475100    0.000000 C.3      1 SUBUNIT    0.0033
      9 C9            5.376500    2.272400   -0.000500 C.3      1 SUBUNIT    0.0279
     10 Cl10          5.941200    1.364700   -1.430000 Cl       1 SUBUNIT   -0.1262
     11 O11           3.786500   -2.451700    0.000400 O.3      1 SUBUNIT   -0.3492
     12 C12           2.897500   -3.569300    0.000300 C.3      1 SUBUNIT    0.0422
     13 H13           2.253100   -3.543300    0.901300 H        1 SUBUNIT    0.0535
     14 H14           2.253600   -3.543600   -0.901000 H        1 SUBUNIT    0.0535
     15 H15           3.474800   -4.515000    0.000700 H        1 SUBUNIT    0.0535
     16 H16           4.884500   -0.049400    0.000000 H        1 SUBUNIT    0.0669
     17 H17           1.121400   -2.180000    0.000000 H        1 SUBUNIT    0.0666
     18 H18           3.562900    3.073300    0.885100 H        1 SUBUNIT    0.0344
     19 H19           3.562300    3.073600   -0.884700 H        1 SUBUNIT    0.0344
     20 H20           5.679800    1.738200    0.921700 H        1 SUBUNIT    0.0439
     21 H21           5.882200    3.257500    0.037000 H        1 SUBUNIT    0.0439
@<TRIPOS>BOND
     1    1    2 1
     2    2    3 2
     3    2    7 1
     4    3    4 1
     5    4    5 2
     6    4    8 1
     7    5    6 1
     8    5   16 1
     9    6    7 2
    10    6   11 1
    11    7   17 1
    12    8    9 1
    13    8   18 1
    14    8   19 1
    15    9   10 1
    16    9   20 1
    17    9   21 1
    18   11   12 1
    19   12   13 1
    20   12   14 1
    21   12   15 1
@<SCITEGIC>ATOM_PROPERTY
Formal Charge
SciTegic.value.StringValue
1 0
2 0
3 0
4 0
5 0
6 0
7 0
8 0
9 0
10 0
11 0
12 0
13 0
14 0
15 0
16 0
17 0
18 0
19 0
20 0
21 0

@<SCITEGIC>ATOM_PROPERTY
pdb_tempFactor
SciTegic.value.DoubleValue
1 0.00
2 0.00
3 0.00
4 0.00
5 0.00
6 0.00
7 0.00
8 0.00
9 0.00
10 0.00
11 0.00
12 0.00
13 0.00
14 0.00
15 0.00
16 0.00
17 0.00
18 0.00
19 0.00
20 0.00
21 0.00

@<SCITEGIC>ATOM_PROPERTY
pdb_occupancy
SciTegic.value.DoubleValue
1 1.00
2 1.00
3 1.00
4 1.00
5 1.00
6 1.00
7 1.00
8 1.00
9 1.00
10 1.00
11 1.00
12 1.00
13 1.00
14 1.00
15 1.00
16 1.00
17 1.00
18 1.00
19 1.00
20 1.00
21 1.00

#	copyright 2023 drugdesign.org
#	Creation time:	2024-01-11T10:58:42Z

@<TRIPOS>MOLECULE
b123.sd
   21    21     0 0 0
SMALL
USER_CHARGES


@<TRIPOS>ATOM
      1 H1            0.000000    0.000000    0.000000 H        1 SUBUNIT    0.0840
      2 C2            1.090000    0.000000    0.000000 C.2      1 SUBUNIT    0.0297
      3 N3            1.759000    1.158700    0.000000 N.2      1 SUBUNIT   -0.2610
      4 C4            3.097000    1.158700    0.000000 C.2      1 SUBUNIT    0.0441
      5 C5            3.794500   -0.049400    0.000000 C.2      1 SUBUNIT   -0.0101
      6 C6            3.097000   -1.257500    0.000000 C.2      1 SUBUNIT    0.0779
      7 C7            1.702000   -1.257500    0.000000 C.2      1 SUBUNIT   -0.0134
      8 C8            3.857000    2.475100    0.000000 C.3      1 SUBUNIT    0.0033
      9 C9            5.376500    2.272400   -0.000500 C.3      1 SUBUNIT    0.0279
     10 Cl10          5.942100    1.364200    1.428400 Cl       1 SUBUNIT   -0.1262
     11 O11           3.786500   -2.451700    0.000400 O.3      1 SUBUNIT   -0.3492
     12 C12           2.897500   -3.569300    0.000300 C.3      1 SUBUNIT    0.0422
     13 H13           2.253100   -3.543300    0.901300 H        1 SUBUNIT    0.0535
     14 H14           2.253600   -3.543600   -0.901000 H        1 SUBUNIT    0.0535
     15 H15           3.474800   -4.515000    0.000700 H        1 SUBUNIT    0.0535
     16 H16           4.884500   -0.049400    0.000000 H        1 SUBUNIT    0.0669
     17 H17           1.121400   -2.180000    0.000000 H        1 SUBUNIT    0.0666
     18 H18           3.562900    3.073300    0.885100 H        1 SUBUNIT    0.0344
     19 H19           3.562300    3.073600   -0.884700 H        1 SUBUNIT    0.0344
     20 H20           5.882200    3.257500   -0.037900 H        1 SUBUNIT    0.0439
     21 H21           5.679200    1.738500   -0.923000 H        1 SUBUNIT    0.0439
@<TRIPOS>BOND
     1    1    2 1
     2    2    3 2
     3    2    7 1
     4    3    4 1
     5    4    5 2
     6    4    8 1
     7    5    6 1
     8    5   16 1
     9    6    7 2
    10    6   11 1
    11    7   17 1
    12    8    9 1
    13    8   18 1
    14    8   19 1
    15    9   10 1
    16    9   20 1
    17    9   21 1
    18   11   12 1
    19   12   13 1
    20   12   14 1
    21   12   15 1
@<SCITEGIC>ATOM_PROPERTY
Formal Charge
SciTegic.value.StringValue
1 0
2 0
3 0
4 0
5 0
6 0
7 0
8 0
9 0
10 0
11 0
12 0
13 0
14 0
15 0
16 0
17 0
18 0
19 0
20 0
21 0

@<SCITEGIC>ATOM_PROPERTY
pdb_tempFactor
SciTegic.value.DoubleValue
1 0.00
2 0.00
3 0.00
4 0.00
5 0.00
6 0.00
7 0.00
8 0.00
9 0.00
10 0.00
11 0.00
12 0.00
13 0.00
14 0.00
15 0.00
16 0.00
17 0.00
18 0.00
19 0.00
20 0.00
21 0.00

@<SCITEGIC>ATOM_PROPERTY
pdb_occupancy
SciTegic.value.DoubleValue
1 1.00
2 1.00
3 1.00
4 1.00
5 1.00
6 1.00
7 1.00
8 1.00
9 1.00
10 1.00
11 1.00
12 1.00
13 1.00
14 1.00
15 1.00
16 1.00
17 1.00
18 1.00
19 1.00
20 1.00
21 1.00

#	copyright 2023 drugdesign.org
#	Creation time:	2024-01-11T10:58:42Z

@<TRIPOS>MOLECULE
b123.sd
   21    21     0 0 0
SMALL
USER_CHARGES


@<TRIPOS>ATOM
      1 H1            0.000000    0.000000    0.000000 H        1 SUBUNIT    0.0840
      2 C2            1.090000    0.000000    0.000000 C.2      1 SUBUNIT    0.0297
      3 N3            1.759000    1.158700    0.000000 N.2      1 SUBUNIT   -0.2610
      4 C4            3.097000    1.158700    0.000000 C.2      1 SUBUNIT    0.0441
      5 C5            3.794500   -0.049400    0.000000 C.2      1 SUBUNIT   -0.0101
      6 C6            3.097000   -1.257500    0.000000 C.2      1 SUBUNIT    0.0779
      7 C7            1.702000   -1.257500    0.000000 C.2      1 SUBUNIT   -0.0134
      8 C8            3.857000    2.475100    0.000000 C.3      1 SUBUNIT    0.0033
      9 C9            5.376500    2.272400   -0.000500 C.3      1 SUBUNIT    0.0279
     10 Cl10          6.269000    3.818200   -0.000500 Cl       1 SUBUNIT   -0.1262
     11 O11           3.786500   -2.451700    0.000400 O.3      1 SUBUNIT   -0.3492
     12 C12           5.198800   -2.240600    0.000800 C.3      1 SUBUNIT    0.0422
     13 H13           5.498800   -1.670000   -0.900300 H        1 SUBUNIT    0.0535
     14 H14           5.498200   -1.669700    0.901900 H        1 SUBUNIT    0.0535
     15 H15           5.729200   -3.213500    0.001100 H        1 SUBUNIT    0.0535
     16 H16           4.884500   -0.049400    0.000000 H        1 SUBUNIT    0.0669
     17 H17           1.121400   -2.180000    0.000000 H        1 SUBUNIT    0.0666
     18 H18           3.562900    3.073300    0.885100 H        1 SUBUNIT    0.0344
     19 H19           3.562300    3.073600   -0.884700 H        1 SUBUNIT    0.0344
     20 H20           5.670700    1.674200   -0.885600 H        1 SUBUNIT    0.0439
     21 H21           5.671200    1.673900    0.884200 H        1 SUBUNIT    0.0439
@<TRIPOS>BOND
     1    1    2 1
     2    2    3 2
     3    2    7 1
     4    3    4 1
     5    4    5 2
     6    4    8 1
     7    5    6 1
     8    5   16 1
     9    6    7 2
    10    6   11 1
    11    7   17 1
    12    8    9 1
    13    8   18 1
    14    8   19 1
    15    9   10 1
    16    9   20 1
    17    9   21 1
    18   11   12 1
    19   12   13 1
    20   12   14 1
    21   12   15 1
@<SCITEGIC>ATOM_PROPERTY
Formal Charge
SciTegic.value.StringValue
1 0
2 0
3 0
4 0
5 0
6 0
7 0
8 0
9 0
10 0
11 0
12 0
13 0
14 0
15 0
16 0
17 0
18 0
19 0
20 0
21 0

@<SCITEGIC>ATOM_PROPERTY
pdb_tempFactor
SciTegic.value.DoubleValue
1 0.00
2 0.00
3 0.00
4 0.00
5 0.00
6 0.00
7 0.00
8 0.00
9 0.00
10 0.00
11 0.00
12 0.00
13 0.00
14 0.00
15 0.00
16 0.00
17 0.00
18 0.00
19 0.00
20 0.00
21 0.00

@<SCITEGIC>ATOM_PROPERTY
pdb_occupancy
SciTegic.value.DoubleValue
1 1.00
2 1.00
3 1.00
4 1.00
5 1.00
6 1.00
7 1.00
8 1.00
9 1.00
10 1.00
11 1.00
12 1.00
13 1.00
14 1.00
15 1.00
16 1.00
17 1.00
18 1.00
19 1.00
20 1.00
21 1.00

#	copyright 2023 drugdesign.org
#	Creation time:	2024-01-11T10:58:42Z

@<TRIPOS>MOLECULE
b123.sd
   21    21     0 0 0
SMALL
USER_CHARGES


@<TRIPOS>ATOM
      1 H1            0.000000    0.000000    0.000000 H        1 SUBUNIT    0.0840
      2 C2            1.090000    0.000000    0.000000 C.2      1 SUBUNIT    0.0297
      3 N3            1.759000    1.158700    0.000000 N.2      1 SUBUNIT   -0.2610
      4 C4            3.097000    1.158700    0.000000 C.2      1 SUBUNIT    0.0441
      5 C5            3.794500   -0.049400    0.000000 C.2      1 SUBUNIT   -0.0101
      6 C6            3.097000   -1.257500    0.000000 C.2      1 SUBUNIT    0.0779
      7 C7            1.702000   -1.257500    0.000000 C.2      1 SUBUNIT   -0.0134
      8 C8            3.857000    2.475100    0.000000 C.3      1 SUBUNIT    0.0033
      9 C9            5.376500    2.272400   -0.000500 C.3      1 SUBUNIT    0.0279
     10 Cl10          5.941200    1.364700   -1.430000 Cl       1 SUBUNIT   -0.1262
     11 O11           3.786500   -2.451700    0.000400 O.3      1 SUBUNIT   -0.3492
     12 C12           5.198800   -2.240600    0.000800 C.3      1 SUBUNIT    0.0422
     13 H13           5.498800   -1.670000   -0.900300 H        1 SUBUNIT    0.0535
     14 H14           5.498200   -1.669700    0.901900 H        1 SUBUNIT    0.0535
     15 H15           5.729200   -3.213500    0.001100 H        1 SUBUNIT    0.0535
     16 H16           4.884500   -0.049400    0.000000 H        1 SUBUNIT    0.0669
     17 H17           1.121400   -2.180000    0.000000 H        1 SUBUNIT    0.0666
     18 H18           3.562900    3.073300    0.885100 H        1 SUBUNIT    0.0344
     19 H19           3.562300    3.073600   -0.884700 H        1 SUBUNIT    0.0344
     20 H20           5.679800    1.738200    0.921700 H        1 SUBUNIT    0.0439
     21 H21           5.882200    3.257500    0.037000 H        1 SUBUNIT    0.0439
@<TRIPOS>BOND
     1    1    2 1
     2    2    3 2
     3    2    7 1
     4    3    4 1
     5    4    5 2
     6    4    8 1
     7    5    6 1
     8    5   16 1
     9    6    7 2
    10    6   11 1
    11    7   17 1
    12    8    9 1
    13    8   18 1
    14    8   19 1
    15    9   10 1
    16    9   20 1
    17    9   21 1
    18   11   12 1
    19   12   13 1
    20   12   14 1
    21   12   15 1
@<SCITEGIC>ATOM_PROPERTY
Formal Charge
SciTegic.value.StringValue
1 0
2 0
3 0
4 0
5 0
6 0
7 0
8 0
9 0
10 0
11 0
12 0
13 0
14 0
15 0
16 0
17 0
18 0
19 0
20 0
21 0

@<SCITEGIC>ATOM_PROPERTY
pdb_tempFactor
SciTegic.value.DoubleValue
1 0.00
2 0.00
3 0.00
4 0.00
5 0.00
6 0.00
7 0.00
8 0.00
9 0.00
10 0.00
11 0.00
12 0.00
13 0.00
14 0.00
15 0.00
16 0.00
17 0.00
18 0.00
19 0.00
20 0.00
21 0.00

@<SCITEGIC>ATOM_PROPERTY
pdb_occupancy
SciTegic.value.DoubleValue
1 1.00
2 1.00
3 1.00
4 1.00
5 1.00
6 1.00
7 1.00
8 1.00
9 1.00
10 1.00
11 1.00
12 1.00
13 1.00
14 1.00
15 1.00
16 1.00
17 1.00
18 1.00
19 1.00
20 1.00
21 1.00

#	copyright 2023 drugdesign.org
#	Creation time:	2024-01-11T10:58:42Z

@<TRIPOS>MOLECULE
b123.sd
   21    21     0 0 0
SMALL
USER_CHARGES


@<TRIPOS>ATOM
      1 H1            0.000000    0.000000    0.000000 H        1 SUBUNIT    0.0840
      2 C2            1.090000    0.000000    0.000000 C.2      1 SUBUNIT    0.0297
      3 N3            1.759000    1.158700    0.000000 N.2      1 SUBUNIT   -0.2610
      4 C4            3.097000    1.158700    0.000000 C.2      1 SUBUNIT    0.0441
      5 C5            3.794500   -0.049400    0.000000 C.2      1 SUBUNIT   -0.0101
      6 C6            3.097000   -1.257500    0.000000 C.2      1 SUBUNIT    0.0779
      7 C7            1.702000   -1.257500    0.000000 C.2      1 SUBUNIT   -0.0134
      8 C8            3.857000    2.475100    0.000000 C.3      1 SUBUNIT    0.0033
      9 C9            5.376500    2.272400   -0.000500 C.3      1 SUBUNIT    0.0279
     10 Cl10          5.942100    1.364200    1.428400 Cl       1 SUBUNIT   -0.1262
     11 O11           3.786500   -2.451700    0.000400 O.3      1 SUBUNIT   -0.3492
     12 C12           5.198800   -2.240600    0.000800 C.3      1 SUBUNIT    0.0422
     13 H13           5.498800   -1.670000   -0.900300 H        1 SUBUNIT    0.0535
     14 H14           5.498200   -1.669700    0.901900 H        1 SUBUNIT    0.0535
     15 H15           5.729200   -3.213500    0.001100 H        1 SUBUNIT    0.0535
     16 H16           4.884500   -0.049400    0.000000 H        1 SUBUNIT    0.0669
     17 H17           1.121400   -2.180000    0.000000 H        1 SUBUNIT    0.0666
     18 H18           3.562900    3.073300    0.885100 H        1 SUBUNIT    0.0344
     19 H19           3.562300    3.073600   -0.884700 H        1 SUBUNIT    0.0344
     20 H20           5.882200    3.257500   -0.037900 H        1 SUBUNIT    0.0439
     21 H21           5.679200    1.738500   -0.923000 H        1 SUBUNIT    0.0439
@<TRIPOS>BOND
     1    1    2 1
     2    2    3 2
     3    2    7 1
     4    3    4 1
     5    4    5 2
     6    4    8 1
     7    5    6 1
     8    5   16 1
     9    6    7 2
    10    6   11 1
    11    7   17 1
    12    8    9 1
    13    8   18 1
    14    8   19 1
    15    9   10 1
    16    9   20 1
    17    9   21 1
    18   11   12 1
    19   12   13 1
    20   12   14 1
    21   12   15 1
@<SCITEGIC>ATOM_PROPERTY
Formal Charge
SciTegic.value.StringValue
1 0
2 0
3 0
4 0
5 0
6 0
7 0
8 0
9 0
10 0
11 0
12 0
13 0
14 0
15 0
16 0
17 0
18 0
19 0
20 0
21 0

@<SCITEGIC>ATOM_PROPERTY
pdb_tempFactor
SciTegic.value.DoubleValue
1 0.00
2 0.00
3 0.00
4 0.00
5 0.00
6 0.00
7 0.00
8 0.00
9 0.00
10 0.00
11 0.00
12 0.00
13 0.00
14 0.00
15 0.00
16 0.00
17 0.00
18 0.00
19 0.00
20 0.00
21 0.00

@<SCITEGIC>ATOM_PROPERTY
pdb_occupancy
SciTegic.value.DoubleValue
1 1.00
2 1.00
3 1.00
4 1.00
5 1.00
6 1.00
7 1.00
8 1.00
9 1.00
10 1.00
11 1.00
12 1.00
13 1.00
14 1.00
15 1.00
16 1.00
17 1.00
18 1.00
19 1.00
20 1.00
21 1.00

