#	copyright 2023 drugdesign.org
#	Creation time:	2024-01-11T10:58:41Z

@<SCITEGIC>ROOT_PROPERTY
Ligand:MaximumNumberOfAtoms
SciTegic.value.IntegerValue
100

@<SCITEGIC>ROOT_PROPERTY
Ligand:HydrogenAtomsCountTowardsMaximum
SciTegic.value.BooleanValue
FALSE

@<TRIPOS>MOLECULE
Molecule
   39    40     0 0 0
SMALL
USER_CHARGES


@<TRIPOS>ATOM
      1 C1           -2.171346    1.291241    0.140929 C.3      1 SUBUNIT    0.0879
      2 C2           -0.864444    0.559720   -0.240834 C.3      1 SUBUNIT    0.0045
      3 C3           -0.814049   -0.796214    0.479702 C.3      1 SUBUNIT    0.0823
      4 C4           -2.043705   -1.615396    0.010662 C.3      1 SUBUNIT    0.0238
      5 N5           -3.300399   -0.924758    0.361758 N.3      1 SUBUNIT   -0.2973
      6 C6           -3.383854    0.383212   -0.312288 C.3      1 SUBUNIT    0.0819
      7 O13           0.441933   -1.472869    0.164222 O.3      1 SUBUNIT   -0.3109
      8 C15           0.564858   -2.721114    0.829496 C.2      1 SUBUNIT    0.2656
      9 C17           1.796793   -3.575789    0.676538 C.3      1 SUBUNIT    0.0589
     10 O19          -2.118215    1.533949    1.574321 O.3      1 SUBUNIT   -0.3783
     11 N21          -4.708275    0.968225   -0.007345 N.3      1 SUBUNIT   -0.3137
     12 H23          -2.204820    2.258588   -0.383661 H        1 SUBUNIT    0.0635
     13 H25          -0.839905    0.413689   -1.229810 H        1 SUBUNIT    0.0322
     14 H27          -0.078763    1.113762    0.034379 H        1 SUBUNIT    0.0322
     15 H29          -0.867590   -0.635314    1.566377 H        1 SUBUNIT    0.0625
     16 H31          -2.000333   -1.732113   -0.981556 H        1 SUBUNIT    0.0456
     17 H33          -2.028075   -2.511991    0.453238 H        1 SUBUNIT    0.0456
     18 H35          -4.087679   -1.512623    0.061418 H        1 SUBUNIT    0.1239
     19 O43          -0.330042   -3.140564    1.570400 O.2      1 SUBUNIT   -0.2662
     20 C39          -3.128916    2.426171    2.064509 C.3      1 SUBUNIT    0.0360
     21 H41          -3.327269    0.216718   -1.397921 H        1 SUBUNIT    0.0661
     22 C43           3.057505   -2.788902    0.894515 C.ar     1 SUBUNIT   -0.0366
     23 H45           1.759818   -4.318100    1.345572 H        1 SUBUNIT    0.0423
     24 H47           1.811120   -3.959145   -0.246952 H        1 SUBUNIT    0.0423
     25 H49          -3.023584    2.539408    3.052436 H        1 SUBUNIT    0.0530
     26 H51          -4.033027    2.046937    1.867480 H        1 SUBUNIT    0.0530
     27 H53          -3.035677    3.315001    1.615797 H        1 SUBUNIT    0.0530
     28 H55          -4.782826    1.904587   -0.431596 H        1 SUBUNIT    0.1200
     29 H57          -4.850037    1.036511    1.003929 H        1 SUBUNIT    0.1200
     30 C59           3.544530   -1.896029   -0.053682 C.ar     1 SUBUNIT   -0.0398
     31 C60           4.725779   -1.201096    0.198581 C.ar     1 SUBUNIT    0.0408
     32 C61           5.410836   -1.394106    1.392725 C.ar     1 SUBUNIT   -0.0435
     33 C62           4.921303   -2.285012    2.339743 C.ar     1 SUBUNIT   -0.0605
     34 C63           3.748257   -2.982322    2.086047 C.ar     1 SUBUNIT   -0.0584
     35 H70           3.050231   -1.753491   -0.911208 H        1 SUBUNIT    0.0641
     36 Cl72          5.353676   -0.097302   -0.972008 Cl       1 SUBUNIT   -0.0843
     37 H74           6.256766   -0.891226    1.570246 H        1 SUBUNIT    0.0638
     38 H76           5.411781   -2.423252    3.200162 H        1 SUBUNIT    0.0623
     39 H78           3.397533   -3.627948    2.764398 H        1 SUBUNIT    0.0626
@<TRIPOS>BOND
     1    1    2 1
     2    2    3 1
     3    3    4 1
     4    4    5 1
     5    5    6 1
     6    6    1 1
     7    3    7 1
     8    7    8 1
     9    8    9 1
    10    1   10 1
    11    6   11 1
    12    1   12 1
    13    2   13 1
    14    2   14 1
    15    3   15 1
    16    4   16 1
    17    4   17 1
    18    5   18 1
    19    8   19 2
    20   10   20 1
    21    6   21 1
    22    9   22 1
    23    9   23 1
    24    9   24 1
    25   20   25 1
    26   20   26 1
    27   20   27 1
    28   11   28 1
    29   11   29 1
    30   30   31 ar
    31   31   32 ar
    32   32   33 ar
    33   33   34 ar
    34   22   30 ar
    35   22   34 ar
    36   30   35 1
    37   31   36 1
    38   32   37 1
    39   33   38 1
    40   34   39 1
@<SCITEGIC>ATOM_PROPERTY
Formal Charge
SciTegic.value.StringValue
1 0
2 0
3 0
4 0
5 0
6 0
7 0
8 0
9 0
10 0
11 0
12 0
13 0
14 0
15 0
16 0
17 0
18 0
19 0
20 0
21 0
22 0
23 0
24 0
25 0
26 0
27 0
28 0
29 0
30 0
31 0
32 0
33 0
34 0
35 0
36 0
37 0
38 0
39 0

@<SCITEGIC>ATOM_PROPERTY
pdb_tempFactor
SciTegic.value.DoubleValue
1 0.00
2 0.00
3 0.00
4 0.00
5 0.00
6 0.00
7 0.00
8 0.00
9 0.00
10 0.00
11 0.00
12 0.00
13 0.00
14 0.00
15 0.00
16 0.00
17 0.00
18 0.00
19 0.00
20 0.00
21 0.00
22 0.00
23 0.00
24 0.00
25 0.00
26 0.00
27 0.00
28 0.00
29 0.00
30 0.00
31 0.00
32 0.00
33 0.00
34 0.00
35 0.00
36 0.00
37 0.00
38 0.00
39 0.00

@<SCITEGIC>ATOM_PROPERTY
pdb_occupancy
SciTegic.value.DoubleValue
1 1.00
2 1.00
3 1.00
4 1.00
5 1.00
6 1.00
7 1.00
8 1.00
9 1.00
10 1.00
11 1.00
12 1.00
13 1.00
14 1.00
15 1.00
16 1.00
17 1.00
18 1.00
19 1.00
20 1.00
21 1.00
22 1.00
23 1.00
24 1.00
25 1.00
26 1.00
27 1.00
28 1.00
29 1.00
30 1.00
31 1.00
32 1.00
33 1.00
34 1.00
35 1.00
36 1.00
37 1.00
38 1.00
39 1.00

#	copyright 2023 drugdesign.org
#	Creation time:	2024-01-11T10:58:41Z

@<SCITEGIC>ROOT_PROPERTY
Ligand:MaximumNumberOfAtoms
SciTegic.value.IntegerValue
100

@<SCITEGIC>ROOT_PROPERTY
Ligand:HydrogenAtomsCountTowardsMaximum
SciTegic.value.BooleanValue
FALSE

@<TRIPOS>MOLECULE
Molecule
   39    40     0 0 0
SMALL
USER_CHARGES


@<TRIPOS>ATOM
      1 C1           -2.171346    1.291241    0.140929 C.3      1 SUBUNIT    0.0879
      2 C2           -0.864444    0.559720   -0.240834 C.3      1 SUBUNIT    0.0045
      3 C3           -0.814049   -0.796214    0.479702 C.3      1 SUBUNIT    0.0823
      4 C4           -2.043705   -1.615396    0.010662 C.3      1 SUBUNIT    0.0238
      5 N5           -3.300399   -0.924758    0.361758 N.3      1 SUBUNIT   -0.2973
      6 C6           -3.383854    0.383212   -0.312288 C.3      1 SUBUNIT    0.0819
      7 O13           0.441933   -1.472869    0.164222 O.3      1 SUBUNIT   -0.3109
      8 C15           0.564858   -2.721114    0.829496 C.2      1 SUBUNIT    0.2656
      9 C17           1.796793   -3.575789    0.676538 C.3      1 SUBUNIT    0.0589
     10 O19          -2.118215    1.533949    1.574321 O.3      1 SUBUNIT   -0.3783
     11 N21          -4.708275    0.968225   -0.007345 N.3      1 SUBUNIT   -0.3137
     12 H23          -2.204820    2.258588   -0.383661 H        1 SUBUNIT    0.0635
     13 H25          -0.839905    0.413689   -1.229810 H        1 SUBUNIT    0.0322
     14 H27          -0.078763    1.113762    0.034379 H        1 SUBUNIT    0.0322
     15 H29          -0.867590   -0.635314    1.566377 H        1 SUBUNIT    0.0625
     16 H31          -2.000333   -1.732113   -0.981556 H        1 SUBUNIT    0.0456
     17 H33          -2.028075   -2.511991    0.453238 H        1 SUBUNIT    0.0456
     18 H35          -4.087679   -1.512623    0.061418 H        1 SUBUNIT    0.1239
     19 O43          -0.330042   -3.140564    1.570400 O.2      1 SUBUNIT   -0.2662
     20 C39          -2.311899    2.903873    1.953338 C.3      1 SUBUNIT    0.0360
     21 H41          -3.327269    0.216718   -1.397921 H        1 SUBUNIT    0.0661
     22 C43           3.057505   -2.788902    0.894515 C.ar     1 SUBUNIT   -0.0366
     23 H45           1.759818   -4.318100    1.345572 H        1 SUBUNIT    0.0423
     24 H47           1.811120   -3.959145   -0.246952 H        1 SUBUNIT    0.0423
     25 H49          -2.261132    2.985208    2.948690 H        1 SUBUNIT    0.0530
     26 H51          -3.209542    3.213344    1.639455 H        1 SUBUNIT    0.0530
     27 H53          -1.600232    3.469373    1.536451 H        1 SUBUNIT    0.0530
     28 H55          -5.120944    1.364785   -0.864529 H        1 SUBUNIT    0.1200
     29 H57          -4.626413    1.698709    0.704782 H        1 SUBUNIT    0.1200
     30 C59           3.544530   -1.896029   -0.053682 C.ar     1 SUBUNIT   -0.0398
     31 C60           4.725779   -1.201096    0.198581 C.ar     1 SUBUNIT    0.0408
     32 C61           5.410836   -1.394106    1.392725 C.ar     1 SUBUNIT   -0.0435
     33 C62           4.921303   -2.285012    2.339743 C.ar     1 SUBUNIT   -0.0605
     34 C63           3.748257   -2.982322    2.086047 C.ar     1 SUBUNIT   -0.0584
     35 H70           3.050231   -1.753491   -0.911208 H        1 SUBUNIT    0.0641
     36 Cl72          5.353676   -0.097302   -0.972008 Cl       1 SUBUNIT   -0.0843
     37 H74           6.256766   -0.891226    1.570246 H        1 SUBUNIT    0.0638
     38 H76           5.411781   -2.423252    3.200162 H        1 SUBUNIT    0.0623
     39 H78           3.397533   -3.627948    2.764398 H        1 SUBUNIT    0.0626
@<TRIPOS>BOND
     1    1    2 1
     2    2    3 1
     3    3    4 1
     4    4    5 1
     5    5    6 1
     6    6    1 1
     7    3    7 1
     8    7    8 1
     9    8    9 1
    10    1   10 1
    11    6   11 1
    12    1   12 1
    13    2   13 1
    14    2   14 1
    15    3   15 1
    16    4   16 1
    17    4   17 1
    18    5   18 1
    19    8   19 2
    20   10   20 1
    21    6   21 1
    22    9   22 1
    23    9   23 1
    24    9   24 1
    25   20   25 1
    26   20   26 1
    27   20   27 1
    28   11   28 1
    29   11   29 1
    30   30   31 ar
    31   31   32 ar
    32   32   33 ar
    33   33   34 ar
    34   22   30 ar
    35   22   34 ar
    36   30   35 1
    37   31   36 1
    38   32   37 1
    39   33   38 1
    40   34   39 1
@<SCITEGIC>ATOM_PROPERTY
Formal Charge
SciTegic.value.StringValue
1 0
2 0
3 0
4 0
5 0
6 0
7 0
8 0
9 0
10 0
11 0
12 0
13 0
14 0
15 0
16 0
17 0
18 0
19 0
20 0
21 0
22 0
23 0
24 0
25 0
26 0
27 0
28 0
29 0
30 0
31 0
32 0
33 0
34 0
35 0
36 0
37 0
38 0
39 0

@<SCITEGIC>ATOM_PROPERTY
pdb_tempFactor
SciTegic.value.DoubleValue
1 0.00
2 0.00
3 0.00
4 0.00
5 0.00
6 0.00
7 0.00
8 0.00
9 0.00
10 0.00
11 0.00
12 0.00
13 0.00
14 0.00
15 0.00
16 0.00
17 0.00
18 0.00
19 0.00
20 0.00
21 0.00
22 0.00
23 0.00
24 0.00
25 0.00
26 0.00
27 0.00
28 0.00
29 0.00
30 0.00
31 0.00
32 0.00
33 0.00
34 0.00
35 0.00
36 0.00
37 0.00
38 0.00
39 0.00

@<SCITEGIC>ATOM_PROPERTY
pdb_occupancy
SciTegic.value.DoubleValue
1 1.00
2 1.00
3 1.00
4 1.00
5 1.00
6 1.00
7 1.00
8 1.00
9 1.00
10 1.00
11 1.00
12 1.00
13 1.00
14 1.00
15 1.00
16 1.00
17 1.00
18 1.00
19 1.00
20 1.00
21 1.00
22 1.00
23 1.00
24 1.00
25 1.00
26 1.00
27 1.00
28 1.00
29 1.00
30 1.00
31 1.00
32 1.00
33 1.00
34 1.00
35 1.00
36 1.00
37 1.00
38 1.00
39 1.00

#	copyright 2023 drugdesign.org
#	Creation time:	2024-01-11T10:58:41Z

@<SCITEGIC>ROOT_PROPERTY
Ligand:MaximumNumberOfAtoms
SciTegic.value.IntegerValue
100

@<SCITEGIC>ROOT_PROPERTY
Ligand:HydrogenAtomsCountTowardsMaximum
SciTegic.value.BooleanValue
FALSE

@<TRIPOS>MOLECULE
Molecule
   39    40     0 0 0
SMALL
USER_CHARGES


@<TRIPOS>ATOM
      1 C1           -2.081749    1.368420    0.332094 C.3      1 SUBUNIT    0.0879
      2 C2           -0.771656    0.644259   -0.052753 C.3      1 SUBUNIT    0.0045
      3 C3           -0.814049   -0.796214    0.479702 C.3      1 SUBUNIT    0.0823
      4 C4           -2.028459   -1.497975   -0.180490 C.3      1 SUBUNIT    0.0238
      5 N5           -3.287398   -0.812168    0.172031 N.3      1 SUBUNIT   -0.2973
      6 C6           -3.282798    0.575905   -0.323265 C.3      1 SUBUNIT    0.0819
      7 O13           0.441933   -1.472869    0.164222 O.3      1 SUBUNIT   -0.3109
      8 C15           0.564858   -2.721114    0.829496 C.2      1 SUBUNIT    0.2656
      9 C17           1.796793   -3.575789    0.676538 C.3      1 SUBUNIT    0.0589
     10 O19          -2.128455    1.416571    1.785313 O.3      1 SUBUNIT   -0.3783
     11 N21          -4.608855    1.165829   -0.035365 N.3      1 SUBUNIT   -0.3137
     12 H23          -2.048249    2.397382   -0.058019 H        1 SUBUNIT    0.0635
     13 H25          -0.677813    0.629903   -1.048236 H        1 SUBUNIT    0.0322
     14 H27           0.006986    1.126229    0.349020 H        1 SUBUNIT    0.0322
     15 H29          -0.943644   -0.778978    1.571731 H        1 SUBUNIT    0.0625
     16 H31          -1.914757   -1.483593   -1.173901 H        1 SUBUNIT    0.0456
     17 H33          -2.071607   -2.445295    0.136877 H        1 SUBUNIT    0.0456
     18 H35          -4.066737   -1.324243   -0.259257 H        1 SUBUNIT    0.1239
     19 O43          -0.330042   -3.140564    1.570400 O.2      1 SUBUNIT   -0.2662
     20 C39          -2.084018    2.739409    2.338472 C.3      1 SUBUNIT    0.0360
     21 H41          -3.150409    0.552872   -1.414807 H        1 SUBUNIT    0.0661
     22 C43           3.057505   -2.788902    0.894515 C.ar     1 SUBUNIT   -0.0366
     23 H45           1.759818   -4.318100    1.345572 H        1 SUBUNIT    0.0423
     24 H47           1.811120   -3.959145   -0.246952 H        1 SUBUNIT    0.0423
     25 H49          -2.120243    2.685352    3.336311 H        1 SUBUNIT    0.0530
     26 H51          -2.865408    3.267025    2.005142 H        1 SUBUNIT    0.0530
     27 H53          -1.235385    3.189287    2.060106 H        1 SUBUNIT    0.0530
     28 H55          -4.945019    1.688204   -0.857823 H        1 SUBUNIT    0.1200
     29 H57          -4.559221    1.791671    0.772900 H        1 SUBUNIT    0.1200
     30 C59           3.377727   -1.677599    0.122534 C.ar     1 SUBUNIT   -0.0398
     31 C60           4.567078   -0.992409    0.363108 C.ar     1 SUBUNIT    0.0408
     32 C61           5.426094   -1.412815    1.372012 C.ar     1 SUBUNIT   -0.0435
     33 C62           5.103173   -2.522079    2.143667 C.ar     1 SUBUNIT   -0.0605
     34 C63           3.921772   -3.208788    1.900018 C.ar     1 SUBUNIT   -0.0584
     35 H70           2.758442   -1.372009   -0.600724 H        1 SUBUNIT    0.0641
     36 Cl72          4.988713    0.382516   -0.593292 Cl       1 SUBUNIT   -0.0843
     37 H74           6.277242   -0.916345    1.542498 H        1 SUBUNIT    0.0638
     38 H76           5.719010   -2.824365    2.871244 H        1 SUBUNIT    0.0623
     39 H78           3.690565   -4.010621    2.451023 H        1 SUBUNIT    0.0626
@<TRIPOS>BOND
     1    1    2 1
     2    2    3 1
     3    3    4 1
     4    4    5 1
     5    5    6 1
     6    6    1 1
     7    3    7 1
     8    7    8 1
     9    8    9 1
    10    1   10 1
    11    6   11 1
    12    1   12 1
    13    2   13 1
    14    2   14 1
    15    3   15 1
    16    4   16 1
    17    4   17 1
    18    5   18 1
    19    8   19 2
    20   10   20 1
    21    6   21 1
    22    9   22 1
    23    9   23 1
    24    9   24 1
    25   20   25 1
    26   20   26 1
    27   20   27 1
    28   11   28 1
    29   11   29 1
    30   30   31 ar
    31   31   32 ar
    32   32   33 ar
    33   33   34 ar
    34   22   30 ar
    35   22   34 ar
    36   30   35 1
    37   31   36 1
    38   32   37 1
    39   33   38 1
    40   34   39 1
@<SCITEGIC>ATOM_PROPERTY
Formal Charge
SciTegic.value.StringValue
1 0
2 0
3 0
4 0
5 0
6 0
7 0
8 0
9 0
10 0
11 0
12 0
13 0
14 0
15 0
16 0
17 0
18 0
19 0
20 0
21 0
22 0
23 0
24 0
25 0
26 0
27 0
28 0
29 0
30 0
31 0
32 0
33 0
34 0
35 0
36 0
37 0
38 0
39 0

@<SCITEGIC>ATOM_PROPERTY
pdb_tempFactor
SciTegic.value.DoubleValue
1 0.00
2 0.00
3 0.00
4 0.00
5 0.00
6 0.00
7 0.00
8 0.00
9 0.00
10 0.00
11 0.00
12 0.00
13 0.00
14 0.00
15 0.00
16 0.00
17 0.00
18 0.00
19 0.00
20 0.00
21 0.00
22 0.00
23 0.00
24 0.00
25 0.00
26 0.00
27 0.00
28 0.00
29 0.00
30 0.00
31 0.00
32 0.00
33 0.00
34 0.00
35 0.00
36 0.00
37 0.00
38 0.00
39 0.00

@<SCITEGIC>ATOM_PROPERTY
pdb_occupancy
SciTegic.value.DoubleValue
1 1.00
2 1.00
3 1.00
4 1.00
5 1.00
6 1.00
7 1.00
8 1.00
9 1.00
10 1.00
11 1.00
12 1.00
13 1.00
14 1.00
15 1.00
16 1.00
17 1.00
18 1.00
19 1.00
20 1.00
21 1.00
22 1.00
23 1.00
24 1.00
25 1.00
26 1.00
27 1.00
28 1.00
29 1.00
30 1.00
31 1.00
32 1.00
33 1.00
34 1.00
35 1.00
36 1.00
37 1.00
38 1.00
39 1.00

#	copyright 2023 drugdesign.org
#	Creation time:	2024-01-11T10:58:41Z

@<SCITEGIC>ROOT_PROPERTY
Ligand:MaximumNumberOfAtoms
SciTegic.value.IntegerValue
100

@<SCITEGIC>ROOT_PROPERTY
Ligand:HydrogenAtomsCountTowardsMaximum
SciTegic.value.BooleanValue
FALSE

@<TRIPOS>MOLECULE
Molecule
   39    40     0 0 0
SMALL
USER_CHARGES


@<TRIPOS>ATOM
      1 C1           -1.912942    1.428896    0.874438 C.3      1 SUBUNIT    0.0879
      2 C2           -0.592946    0.724089    0.487498 C.3      1 SUBUNIT    0.0045
      3 C3           -0.814049   -0.796214    0.479702 C.3      1 SUBUNIT    0.0823
      4 C4           -1.911770   -1.098731   -0.572250 C.3      1 SUBUNIT    0.0238
      5 N5           -3.177385   -0.425249   -0.219869 N.3      1 SUBUNIT   -0.2973
      6 C6           -3.003297    1.038123   -0.201907 C.3      1 SUBUNIT    0.0819
      7 O13           0.441933   -1.472869    0.164222 O.3      1 SUBUNIT   -0.3109
      8 C15           0.564858   -2.721114    0.829496 C.2      1 SUBUNIT    0.2656
      9 C17           1.796793   -3.575789    0.676538 C.3      1 SUBUNIT    0.0589
     10 O19          -2.239311    1.004783    2.227196 O.3      1 SUBUNIT   -0.3783
     11 N21          -4.327104    1.650513    0.046766 N.3      1 SUBUNIT   -0.3137
     12 H23          -1.749948    2.517701    0.871505 H        1 SUBUNIT    0.0635
     13 H25          -0.307820    1.024951   -0.422548 H        1 SUBUNIT    0.0322
     14 H27           0.116758    0.955123    1.153037 H        1 SUBUNIT    0.0322
     15 H29          -1.152851   -1.121783    1.474105 H        1 SUBUNIT    0.0625
     16 H31          -1.606086   -0.773879   -1.467252 H        1 SUBUNIT    0.0456
     17 H33          -2.065742   -2.086076   -0.610240 H        1 SUBUNIT    0.0456
     18 H35          -3.883606   -0.674802   -0.923129 H        1 SUBUNIT    0.1239
     19 O43          -0.330042   -3.140564    1.570400 O.2      1 SUBUNIT   -0.2662
     20 C39          -1.587346    1.757026    3.260121 C.3      1 SUBUNIT    0.0360
     21 H41          -2.662158    1.357773   -1.197381 H        1 SUBUNIT    0.0661
     22 C43           3.051222   -2.750880    0.631457 C.ar     1 SUBUNIT   -0.0366
     23 H45           1.851699   -4.204720    1.452058 H        1 SUBUNIT    0.0423
     24 H47           1.723555   -4.098645   -0.172731 H        1 SUBUNIT    0.0423
     25 H49          -1.863280    1.404794    4.154386 H        1 SUBUNIT    0.0530
     26 H51          -1.847642    2.719799    3.186842 H        1 SUBUNIT    0.0530
     27 H53          -0.595997    1.671605    3.160189 H        1 SUBUNIT    0.0530
     28 H55          -4.741343    1.961379   -0.844350 H        1 SUBUNIT    0.1200
     29 H57          -4.243858    2.447168    0.683825 H        1 SUBUNIT    0.1200
     30 C59           3.389326   -1.980029   -0.475326 C.ar     1 SUBUNIT   -0.0398
     31 C60           4.571942   -1.242988   -0.465021 C.ar     1 SUBUNIT    0.0408
     32 C61           5.406427   -1.272835    0.646410 C.ar     1 SUBUNIT   -0.0435
     33 C62           5.065631   -2.041917    1.752108 C.ar     1 SUBUNIT   -0.0605
     34 C63           3.891041   -2.781391    1.739641 C.ar     1 SUBUNIT   -0.0584
     35 H70           2.787624   -1.954724   -1.273646 H        1 SUBUNIT    0.0641
     36 Cl72          5.015725   -0.289496   -1.834987 Cl       1 SUBUNIT   -0.0843
     37 H74           6.252791   -0.740243    0.650056 H        1 SUBUNIT    0.0638
     38 H76           5.663781   -2.062641    2.553225 H        1 SUBUNIT    0.0623
     39 H78           3.647078   -3.339694    2.532597 H        1 SUBUNIT    0.0626
@<TRIPOS>BOND
     1    1    2 1
     2    2    3 1
     3    3    4 1
     4    4    5 1
     5    5    6 1
     6    6    1 1
     7    3    7 1
     8    7    8 1
     9    8    9 1
    10    1   10 1
    11    6   11 1
    12    1   12 1
    13    2   13 1
    14    2   14 1
    15    3   15 1
    16    4   16 1
    17    4   17 1
    18    5   18 1
    19    8   19 2
    20   10   20 1
    21    6   21 1
    22    9   22 1
    23    9   23 1
    24    9   24 1
    25   20   25 1
    26   20   26 1
    27   20   27 1
    28   11   28 1
    29   11   29 1
    30   30   31 ar
    31   31   32 ar
    32   32   33 ar
    33   33   34 ar
    34   22   30 ar
    35   22   34 ar
    36   30   35 1
    37   31   36 1
    38   32   37 1
    39   33   38 1
    40   34   39 1
@<SCITEGIC>ATOM_PROPERTY
Formal Charge
SciTegic.value.StringValue
1 0
2 0
3 0
4 0
5 0
6 0
7 0
8 0
9 0
10 0
11 0
12 0
13 0
14 0
15 0
16 0
17 0
18 0
19 0
20 0
21 0
22 0
23 0
24 0
25 0
26 0
27 0
28 0
29 0
30 0
31 0
32 0
33 0
34 0
35 0
36 0
37 0
38 0
39 0

@<SCITEGIC>ATOM_PROPERTY
pdb_tempFactor
SciTegic.value.DoubleValue
1 0.00
2 0.00
3 0.00
4 0.00
5 0.00
6 0.00
7 0.00
8 0.00
9 0.00
10 0.00
11 0.00
12 0.00
13 0.00
14 0.00
15 0.00
16 0.00
17 0.00
18 0.00
19 0.00
20 0.00
21 0.00
22 0.00
23 0.00
24 0.00
25 0.00
26 0.00
27 0.00
28 0.00
29 0.00
30 0.00
31 0.00
32 0.00
33 0.00
34 0.00
35 0.00
36 0.00
37 0.00
38 0.00
39 0.00

@<SCITEGIC>ATOM_PROPERTY
pdb_occupancy
SciTegic.value.DoubleValue
1 1.00
2 1.00
3 1.00
4 1.00
5 1.00
6 1.00
7 1.00
8 1.00
9 1.00
10 1.00
11 1.00
12 1.00
13 1.00
14 1.00
15 1.00
16 1.00
17 1.00
18 1.00
19 1.00
20 1.00
21 1.00
22 1.00
23 1.00
24 1.00
25 1.00
26 1.00
27 1.00
28 1.00
29 1.00
30 1.00
31 1.00
32 1.00
33 1.00
34 1.00
35 1.00
36 1.00
37 1.00
38 1.00
39 1.00

#	copyright 2023 drugdesign.org
#	Creation time:	2024-01-11T10:58:41Z

@<SCITEGIC>ROOT_PROPERTY
Ligand:MaximumNumberOfAtoms
SciTegic.value.IntegerValue
100

@<SCITEGIC>ROOT_PROPERTY
Ligand:HydrogenAtomsCountTowardsMaximum
SciTegic.value.BooleanValue
FALSE

@<TRIPOS>MOLECULE
Molecule
   39    40     0 0 0
SMALL
USER_CHARGES


@<TRIPOS>ATOM
      1 C1           -2.071644    1.226763    0.192930 C.3      1 SUBUNIT    0.0879
      2 C2           -0.723328    0.487673    0.262037 C.3      1 SUBUNIT    0.0045
      3 C3           -0.958910   -0.976171   -0.140559 C.3      1 SUBUNIT    0.0823
      4 C4           -1.975823   -1.591814    0.859485 C.3      1 SUBUNIT    0.0238
      5 N5           -3.250075   -0.845640    0.778356 N.3      1 SUBUNIT   -0.2973
      6 C6           -3.051148    0.569716    1.146557 C.3      1 SUBUNIT    0.0819
      7 O13           0.298703   -1.669077   -0.135542 O.3      1 SUBUNIT   -0.3109
      8 C15           0.188511   -2.980916   -0.640239 C.2      1 SUBUNIT    0.2656
      9 C17           1.419055   -3.845617   -0.797282 C.3      1 SUBUNIT    0.0589
     10 O19          -1.941725    2.589058    0.586901 O.3      1 SUBUNIT   -0.3783
     11 N21          -4.309317    1.310544    1.059460 N.3      1 SUBUNIT   -0.3137
     12 H23          -2.460602    1.177690   -0.834419 H        1 SUBUNIT    0.0635
     13 H25          -0.072181    0.911461   -0.367575 H        1 SUBUNIT    0.0322
     14 H27          -0.361985    0.528746    1.193565 H        1 SUBUNIT    0.0322
     15 H29          -1.370662   -1.009658   -1.157801 H        1 SUBUNIT    0.0625
     16 H31          -2.134770   -2.551241    0.626599 H        1 SUBUNIT    0.0456
     17 H33          -1.610636   -1.529859    1.788355 H        1 SUBUNIT    0.0456
     18 H35          -3.612319   -0.907498   -0.182402 H        1 SUBUNIT    0.1239
     19 O43          -0.900322   -3.413105   -1.033702 O.2      1 SUBUNIT   -0.2662
     20 C39          -1.038829    3.271743   -0.289081 C.3      1 SUBUNIT    0.0360
     21 H41          -2.667661    0.619914    2.175790 H        1 SUBUNIT    0.0661
     22 C43           2.656977   -3.153071   -0.288253 C.ar     1 SUBUNIT   -0.0366
     23 H45           1.287256   -4.692839   -0.282652 H        1 SUBUNIT    0.0423
     24 H47           1.542979   -4.059478   -1.766254 H        1 SUBUNIT    0.0423
     25 H49          -0.954870    4.226485   -0.003886 H        1 SUBUNIT    0.0530
     26 H51          -1.388860    3.233515   -1.225068 H        1 SUBUNIT    0.0530
     27 H53          -0.141052    2.832865   -0.251164 H        1 SUBUNIT    0.0530
     28 H55          -4.669470    1.264278    0.097073 H        1 SUBUNIT    0.1200
     29 H57          -4.124148    2.301928    1.296512 H        1 SUBUNIT    0.1200
     30 C59           3.745075   -3.006111   -1.140044 C.ar     1 SUBUNIT   -0.0398
     31 C60           4.895715   -2.363983   -0.699166 C.ar     1 SUBUNIT    0.0408
     32 C61           4.963777   -1.874663    0.600259 C.ar     1 SUBUNIT   -0.0435
     33 C62           3.878920   -2.026822    1.456679 C.ar     1 SUBUNIT   -0.0605
     34 C63           2.725127   -2.663136    1.012483 C.ar     1 SUBUNIT   -0.0584
     35 H70           3.699851   -3.363490   -2.072907 H        1 SUBUNIT    0.0641
     36 Cl72          6.236964   -2.170345   -1.770046 Cl       1 SUBUNIT   -0.0843
     37 H74           5.792081   -1.413718    0.918757 H        1 SUBUNIT    0.0638
     38 H76           3.928547   -1.678383    2.392695 H        1 SUBUNIT    0.0623
     39 H78           1.944056   -2.768732    1.627932 H        1 SUBUNIT    0.0626
@<TRIPOS>BOND
     1    1    2 1
     2    2    3 1
     3    3    4 1
     4    4    5 1
     5    5    6 1
     6    6    1 1
     7    3    7 1
     8    7    8 1
     9    8    9 1
    10    1   10 1
    11    6   11 1
    12    1   12 1
    13    2   13 1
    14    2   14 1
    15    3   15 1
    16    4   16 1
    17    4   17 1
    18    5   18 1
    19    8   19 2
    20   10   20 1
    21    6   21 1
    22    9   22 1
    23    9   23 1
    24    9   24 1
    25   20   25 1
    26   20   26 1
    27   20   27 1
    28   11   28 1
    29   11   29 1
    30   30   31 ar
    31   31   32 ar
    32   32   33 ar
    33   33   34 ar
    34   22   30 ar
    35   22   34 ar
    36   30   35 1
    37   31   36 1
    38   32   37 1
    39   33   38 1
    40   34   39 1
@<SCITEGIC>ATOM_PROPERTY
Formal Charge
SciTegic.value.StringValue
1 0
2 0
3 0
4 0
5 0
6 0
7 0
8 0
9 0
10 0
11 0
12 0
13 0
14 0
15 0
16 0
17 0
18 0
19 0
20 0
21 0
22 0
23 0
24 0
25 0
26 0
27 0
28 0
29 0
30 0
31 0
32 0
33 0
34 0
35 0
36 0
37 0
38 0
39 0

@<SCITEGIC>ATOM_PROPERTY
pdb_tempFactor
SciTegic.value.DoubleValue
1 0.00
2 0.00
3 0.00
4 0.00
5 0.00
6 0.00
7 0.00
8 0.00
9 0.00
10 0.00
11 0.00
12 0.00
13 0.00
14 0.00
15 0.00
16 0.00
17 0.00
18 0.00
19 0.00
20 0.00
21 0.00
22 0.00
23 0.00
24 0.00
25 0.00
26 0.00
27 0.00
28 0.00
29 0.00
30 0.00
31 0.00
32 0.00
33 0.00
34 0.00
35 0.00
36 0.00
37 0.00
38 0.00
39 0.00

@<SCITEGIC>ATOM_PROPERTY
pdb_occupancy
SciTegic.value.DoubleValue
1 1.00
2 1.00
3 1.00
4 1.00
5 1.00
6 1.00
7 1.00
8 1.00
9 1.00
10 1.00
11 1.00
12 1.00
13 1.00
14 1.00
15 1.00
16 1.00
17 1.00
18 1.00
19 1.00
20 1.00
21 1.00
22 1.00
23 1.00
24 1.00
25 1.00
26 1.00
27 1.00
28 1.00
29 1.00
30 1.00
31 1.00
32 1.00
33 1.00
34 1.00
35 1.00
36 1.00
37 1.00
38 1.00
39 1.00

#	copyright 2023 drugdesign.org
#	Creation time:	2024-01-11T10:58:41Z

@<SCITEGIC>ROOT_PROPERTY
Ligand:MaximumNumberOfAtoms
SciTegic.value.IntegerValue
100

@<SCITEGIC>ROOT_PROPERTY
Ligand:HydrogenAtomsCountTowardsMaximum
SciTegic.value.BooleanValue
FALSE

@<TRIPOS>MOLECULE
Molecule
   39    40     0 0 0
SMALL
USER_CHARGES


@<TRIPOS>ATOM
      1 C1           -2.140245    1.320149    0.202747 C.3      1 SUBUNIT    0.0879
      2 C2           -0.832331    0.591046   -0.180180 C.3      1 SUBUNIT    0.0045
      3 C3           -0.814049   -0.796214    0.479702 C.3      1 SUBUNIT    0.0823
      4 C4           -2.040605   -1.579073   -0.054904 C.3      1 SUBUNIT    0.0238
      5 N5           -3.298017   -0.890032    0.296757 N.3      1 SUBUNIT   -0.2973
      6 C6           -3.350996    0.447629   -0.319639 C.3      1 SUBUNIT    0.0819
      7 O13           0.441933   -1.472869    0.164222 O.3      1 SUBUNIT   -0.3109
      8 C15           0.564858   -2.721114    0.829496 C.2      1 SUBUNIT    0.2656
      9 C17           1.796793   -3.575789    0.676538 C.3      1 SUBUNIT    0.0589
     10 O19          -2.119487    1.497956    1.646457 O.3      1 SUBUNIT   -0.3783
     11 N21          -4.676118    1.034017   -0.020434 N.3      1 SUBUNIT   -0.3137
     12 H23          -2.150552    2.310286   -0.278498 H        1 SUBUNIT    0.0635
     13 H25          -0.785248    0.489050   -1.173849 H        1 SUBUNIT    0.0322
     14 H27          -0.047706    1.122940    0.138335 H        1 SUBUNIT    0.0322
     15 H29          -0.892347   -0.683386    1.570921 H        1 SUBUNIT    0.0625
     16 H31          -1.974303   -1.651864   -1.050045 H        1 SUBUNIT    0.0456
     17 H33          -2.045377   -2.494661    0.347186 H        1 SUBUNIT    0.0456
     18 H35          -4.083991   -1.454572   -0.048409 H        1 SUBUNIT    0.1239
     19 O43          -0.330042   -3.140564    1.570400 O.2      1 SUBUNIT   -0.2662
     20 C39          -1.067668    2.347290    2.126214 C.3      1 SUBUNIT    0.0360
     21 H41          -3.269741    0.329130   -1.409995 H        1 SUBUNIT    0.0661
     22 C43           3.051222   -2.750880    0.631457 C.ar     1 SUBUNIT   -0.0366
     23 H45           1.851699   -4.204719    1.452058 H        1 SUBUNIT    0.0423
     24 H47           1.723555   -4.098645   -0.172731 H        1 SUBUNIT    0.0423
     25 H49          -1.123131    2.417177    3.122185 H        1 SUBUNIT    0.0530
     26 H51          -1.163302    3.257353    1.722858 H        1 SUBUNIT    0.0530
     27 H53          -0.182325    1.960237    1.868505 H        1 SUBUNIT    0.0530
     28 H55          -5.303438    0.910835   -0.828899 H        1 SUBUNIT    0.1200
     29 H57          -4.590301    2.029799    0.199769 H        1 SUBUNIT    0.1200
     30 C59           3.389326   -1.980030   -0.475326 C.ar     1 SUBUNIT   -0.0398
     31 C60           4.571941   -1.242988   -0.465021 C.ar     1 SUBUNIT    0.0408
     32 C61           5.406428   -1.272835    0.646410 C.ar     1 SUBUNIT   -0.0435
     33 C62           5.065632   -2.041917    1.752108 C.ar     1 SUBUNIT   -0.0605
     34 C63           3.891041   -2.781391    1.739641 C.ar     1 SUBUNIT   -0.0584
     35 H70           2.787624   -1.954724   -1.273646 H        1 SUBUNIT    0.0641
     36 Cl72          5.015724   -0.289496   -1.834987 Cl       1 SUBUNIT   -0.0843
     37 H74           6.252792   -0.740242    0.650056 H        1 SUBUNIT    0.0638
     38 H76           5.663780   -2.062641    2.553225 H        1 SUBUNIT    0.0623
     39 H78           3.647078   -3.339694    2.532597 H        1 SUBUNIT    0.0626
@<TRIPOS>BOND
     1    1    2 1
     2    2    3 1
     3    3    4 1
     4    4    5 1
     5    5    6 1
     6    6    1 1
     7    3    7 1
     8    7    8 1
     9    8    9 1
    10    1   10 1
    11    6   11 1
    12    1   12 1
    13    2   13 1
    14    2   14 1
    15    3   15 1
    16    4   16 1
    17    4   17 1
    18    5   18 1
    19    8   19 2
    20   10   20 1
    21    6   21 1
    22    9   22 1
    23    9   23 1
    24    9   24 1
    25   20   25 1
    26   20   26 1
    27   20   27 1
    28   11   28 1
    29   11   29 1
    30   30   31 ar
    31   31   32 ar
    32   32   33 ar
    33   33   34 ar
    34   22   30 ar
    35   22   34 ar
    36   30   35 1
    37   31   36 1
    38   32   37 1
    39   33   38 1
    40   34   39 1
@<SCITEGIC>ATOM_PROPERTY
Formal Charge
SciTegic.value.StringValue
1 0
2 0
3 0
4 0
5 0
6 0
7 0
8 0
9 0
10 0
11 0
12 0
13 0
14 0
15 0
16 0
17 0
18 0
19 0
20 0
21 0
22 0
23 0
24 0
25 0
26 0
27 0
28 0
29 0
30 0
31 0
32 0
33 0
34 0
35 0
36 0
37 0
38 0
39 0

@<SCITEGIC>ATOM_PROPERTY
pdb_tempFactor
SciTegic.value.DoubleValue
1 0.00
2 0.00
3 0.00
4 0.00
5 0.00
6 0.00
7 0.00
8 0.00
9 0.00
10 0.00
11 0.00
12 0.00
13 0.00
14 0.00
15 0.00
16 0.00
17 0.00
18 0.00
19 0.00
20 0.00
21 0.00
22 0.00
23 0.00
24 0.00
25 0.00
26 0.00
27 0.00
28 0.00
29 0.00
30 0.00
31 0.00
32 0.00
33 0.00
34 0.00
35 0.00
36 0.00
37 0.00
38 0.00
39 0.00

@<SCITEGIC>ATOM_PROPERTY
pdb_occupancy
SciTegic.value.DoubleValue
1 1.00
2 1.00
3 1.00
4 1.00
5 1.00
6 1.00
7 1.00
8 1.00
9 1.00
10 1.00
11 1.00
12 1.00
13 1.00
14 1.00
15 1.00
16 1.00
17 1.00
18 1.00
19 1.00
20 1.00
21 1.00
22 1.00
23 1.00
24 1.00
25 1.00
26 1.00
27 1.00
28 1.00
29 1.00
30 1.00
31 1.00
32 1.00
33 1.00
34 1.00
35 1.00
36 1.00
37 1.00
38 1.00
39 1.00

#	copyright 2023 drugdesign.org
#	Creation time:	2024-01-11T10:58:41Z

@<SCITEGIC>ROOT_PROPERTY
Ligand:MaximumNumberOfAtoms
SciTegic.value.IntegerValue
100

@<SCITEGIC>ROOT_PROPERTY
Ligand:HydrogenAtomsCountTowardsMaximum
SciTegic.value.BooleanValue
FALSE

@<TRIPOS>MOLECULE
Molecule
   39    40     0 0 0
SMALL
USER_CHARGES


@<TRIPOS>ATOM
      1 C1           -2.140245    1.320149    0.202747 C.3      1 SUBUNIT    0.0879
      2 C2           -0.832331    0.591046   -0.180180 C.3      1 SUBUNIT    0.0045
      3 C3           -0.814049   -0.796214    0.479702 C.3      1 SUBUNIT    0.0823
      4 C4           -2.040605   -1.579073   -0.054904 C.3      1 SUBUNIT    0.0238
      5 N5           -3.298017   -0.890032    0.296757 N.3      1 SUBUNIT   -0.2973
      6 C6           -3.272353    0.554123   -0.015017 C.3      1 SUBUNIT    0.0819
      7 O13           0.441933   -1.472869    0.164222 O.3      1 SUBUNIT   -0.3109
      8 C15           0.306073   -2.886104    0.153107 C.2      1 SUBUNIT    0.2656
      9 C17           1.483833   -3.787257   -0.115846 C.3      1 SUBUNIT    0.0589
     10 O19          -2.119487    1.497956    1.646457 O.3      1 SUBUNIT   -0.3783
     11 N21          -4.676118    1.034017   -0.020434 N.3      1 SUBUNIT   -0.3137
     12 H23          -2.179749    2.157763   -0.342087 H        1 SUBUNIT    0.0635
     13 H25          -0.785248    0.489050   -1.173849 H        1 SUBUNIT    0.0322
     14 H27          -0.047706    1.122940    0.138335 H        1 SUBUNIT    0.0322
     15 H29          -0.892347   -0.683386    1.570921 H        1 SUBUNIT    0.0625
     16 H31          -1.974303   -1.651864   -1.050045 H        1 SUBUNIT    0.0456
     17 H33          -2.045377   -2.494661    0.347186 H        1 SUBUNIT    0.0456
     18 H35          -4.046493   -1.312861   -0.214125 H        1 SUBUNIT    0.1239
     19 O43          -0.782037   -3.424706    0.380369 O.2      1 SUBUNIT   -0.2662
     20 C39          -1.555507    2.742066    2.084608 C.3      1 SUBUNIT    0.0360
     21 H41          -2.912916    0.801890   -0.914692 H        1 SUBUNIT    0.0661
     22 C43           2.742627   -3.272572    0.521834 C.ar     1 SUBUNIT   -0.0366
     23 H45           1.284929   -4.696367    0.250153 H        1 SUBUNIT    0.0423
     24 H47           1.624318   -3.848645   -1.104024 H        1 SUBUNIT    0.0423
     25 H49          -1.578390    2.785588    3.083357 H        1 SUBUNIT    0.0530
     26 H51          -2.085913    3.500682    1.706155 H        1 SUBUNIT    0.0530
     27 H53          -0.608519    2.808405    1.770173 H        1 SUBUNIT    0.0530
     28 H55          -4.693813    2.011805   -0.229087 H        1 SUBUNIT    0.1200
     29 H57          -5.085681    0.878034    0.878444 H        1 SUBUNIT    0.1200
     30 C59           3.663405   -2.500796   -0.178184 C.ar     1 SUBUNIT   -0.0398
     31 C60           4.819735   -2.059853    0.462430 C.ar     1 SUBUNIT    0.0408
     32 C61           5.049673   -2.384015    1.794566 C.ar     1 SUBUNIT   -0.0435
     33 C62           4.127310   -3.153357    2.492818 C.ar     1 SUBUNIT   -0.0605
     34 C63           2.978595   -3.598302    1.853194 C.ar     1 SUBUNIT   -0.0584
     35 H70           3.496859   -2.263681   -1.135283 H        1 SUBUNIT    0.0641
     36 Cl72          5.981563   -1.111012   -0.393580 Cl       1 SUBUNIT   -0.0843
     37 H74           5.879744   -2.063145    2.250663 H        1 SUBUNIT    0.0638
     38 H76           4.290238   -3.385477    3.451762 H        1 SUBUNIT    0.0623
     39 H78           2.316386   -4.156682    2.352885 H        1 SUBUNIT    0.0626
@<TRIPOS>BOND
     1    1    2 1
     2    2    3 1
     3    3    4 1
     4    4    5 1
     5    5    6 1
     6    6    1 1
     7    3    7 1
     8    7    8 1
     9    8    9 1
    10    1   10 1
    11    6   11 1
    12    1   12 1
    13    2   13 1
    14    2   14 1
    15    3   15 1
    16    4   16 1
    17    4   17 1
    18    5   18 1
    19    8   19 2
    20   10   20 1
    21    6   21 1
    22    9   22 1
    23    9   23 1
    24    9   24 1
    25   20   25 1
    26   20   26 1
    27   20   27 1
    28   11   28 1
    29   11   29 1
    30   30   31 ar
    31   31   32 ar
    32   32   33 ar
    33   33   34 ar
    34   22   30 ar
    35   22   34 ar
    36   30   35 1
    37   31   36 1
    38   32   37 1
    39   33   38 1
    40   34   39 1
@<SCITEGIC>ATOM_PROPERTY
Formal Charge
SciTegic.value.StringValue
1 0
2 0
3 0
4 0
5 0
6 0
7 0
8 0
9 0
10 0
11 0
12 0
13 0
14 0
15 0
16 0
17 0
18 0
19 0
20 0
21 0
22 0
23 0
24 0
25 0
26 0
27 0
28 0
29 0
30 0
31 0
32 0
33 0
34 0
35 0
36 0
37 0
38 0
39 0

@<SCITEGIC>ATOM_PROPERTY
pdb_tempFactor
SciTegic.value.DoubleValue
1 0.00
2 0.00
3 0.00
4 0.00
5 0.00
6 0.00
7 0.00
8 0.00
9 0.00
10 0.00
11 0.00
12 0.00
13 0.00
14 0.00
15 0.00
16 0.00
17 0.00
18 0.00
19 0.00
20 0.00
21 0.00
22 0.00
23 0.00
24 0.00
25 0.00
26 0.00
27 0.00
28 0.00
29 0.00
30 0.00
31 0.00
32 0.00
33 0.00
34 0.00
35 0.00
36 0.00
37 0.00
38 0.00
39 0.00

@<SCITEGIC>ATOM_PROPERTY
pdb_occupancy
SciTegic.value.DoubleValue
1 1.00
2 1.00
3 1.00
4 1.00
5 1.00
6 1.00
7 1.00
8 1.00
9 1.00
10 1.00
11 1.00
12 1.00
13 1.00
14 1.00
15 1.00
16 1.00
17 1.00
18 1.00
19 1.00
20 1.00
21 1.00
22 1.00
23 1.00
24 1.00
25 1.00
26 1.00
27 1.00
28 1.00
29 1.00
30 1.00
31 1.00
32 1.00
33 1.00
34 1.00
35 1.00
36 1.00
37 1.00
38 1.00
39 1.00

#	copyright 2023 drugdesign.org
#	Creation time:	2024-01-11T10:58:41Z

@<SCITEGIC>ROOT_PROPERTY
Ligand:MaximumNumberOfAtoms
SciTegic.value.IntegerValue
100

@<SCITEGIC>ROOT_PROPERTY
Ligand:HydrogenAtomsCountTowardsMaximum
SciTegic.value.BooleanValue
FALSE

@<TRIPOS>MOLECULE
Molecule
   39    40     0 0 0
SMALL
USER_CHARGES


@<TRIPOS>ATOM
      1 C1           -2.140245    1.320149    0.202747 C.3      1 SUBUNIT    0.0879
      2 C2           -0.832331    0.591046   -0.180180 C.3      1 SUBUNIT    0.0045
      3 C3           -0.814049   -0.796214    0.479702 C.3      1 SUBUNIT    0.0823
      4 C4           -2.086055   -1.409775    0.281731 C.3      1 SUBUNIT    0.0238
      5 N5           -3.298017   -0.890032    0.296757 N.3      1 SUBUNIT   -0.2973
      6 C6           -3.272353    0.554123   -0.015017 C.3      1 SUBUNIT    0.0819
      7 O13           0.441933   -1.472869    0.164222 O.3      1 SUBUNIT   -0.3109
      8 C15           0.248226   -2.617704   -0.652874 C.2      1 SUBUNIT    0.2656
      9 C17           1.404301   -3.488428   -1.073420 C.3      1 SUBUNIT    0.0589
     10 O19          -2.119487    1.497956    1.646457 O.3      1 SUBUNIT   -0.3783
     11 N21          -4.676118    1.034017   -0.020434 N.3      1 SUBUNIT   -0.3137
     12 H23          -2.179749    2.157763   -0.342087 H        1 SUBUNIT    0.0635
     13 H25          -0.785248    0.489050   -1.173849 H        1 SUBUNIT    0.0322
     14 H27          -0.047706    1.122940    0.138335 H        1 SUBUNIT    0.0322
     15 H29          -0.757694   -0.808462    1.478038 H        1 SUBUNIT    0.0625
     16 H31          -2.014012   -1.829493   -0.623059 H        1 SUBUNIT    0.0456
     17 H33          -2.120892   -2.125057    0.979698 H        1 SUBUNIT    0.0456
     18 H35          -3.861013   -1.359187   -0.383632 H        1 SUBUNIT    0.1239
     19 O43          -0.879842   -2.947217   -1.033148 O.2      1 SUBUNIT   -0.2662
     20 C39          -2.330065    2.848228    2.082669 C.3      1 SUBUNIT    0.0360
     21 H41          -2.912916    0.801890   -0.914692 H        1 SUBUNIT    0.0661
     22 C43           2.413050   -3.653675    0.027135 C.ar     1 SUBUNIT   -0.0366
     23 H45           1.053739   -4.389697   -1.328017 H        1 SUBUNIT    0.0423
     24 H47           1.853368   -3.069747   -1.862752 H        1 SUBUNIT    0.0423
     25 H49          -2.301220    2.884661    3.081549 H        1 SUBUNIT    0.0530
     26 H51          -3.222724    3.166710    1.763633 H        1 SUBUNIT    0.0530
     27 H53          -1.613250    3.435899    1.707337 H        1 SUBUNIT    0.0530
     28 H55          -4.795713    1.707855   -0.749513 H        1 SUBUNIT    0.1200
     29 H57          -4.887962    1.456197    0.861009 H        1 SUBUNIT    0.1200
     30 C59           3.632103   -2.984848    0.018692 C.ar     1 SUBUNIT   -0.0398
     31 C60           4.534053   -3.185390    1.061852 C.ar     1 SUBUNIT    0.0408
     32 C61           4.215880   -4.044021    2.107823 C.ar     1 SUBUNIT   -0.0435
     33 C62           2.996383   -4.709576    2.115467 C.ar     1 SUBUNIT   -0.0605
     34 C63           2.100459   -4.515175    1.073272 C.ar     1 SUBUNIT   -0.0584
     35 H70           3.860122   -2.363856   -0.731226 H        1 SUBUNIT    0.0641
     36 Cl72          6.058547   -2.373714    1.063029 Cl       1 SUBUNIT   -0.0843
     37 H74           4.865377   -4.182748    2.855428 H        1 SUBUNIT    0.0638
     38 H76           2.765151   -5.325818    2.868312 H        1 SUBUNIT    0.0623
     39 H78           1.224566   -4.997678    1.074628 H        1 SUBUNIT    0.0626
@<TRIPOS>BOND
     1    1    2 1
     2    2    3 1
     3    3    4 1
     4    4    5 1
     5    5    6 1
     6    6    1 1
     7    3    7 1
     8    7    8 1
     9    8    9 1
    10    1   10 1
    11    6   11 1
    12    1   12 1
    13    2   13 1
    14    2   14 1
    15    3   15 1
    16    4   16 1
    17    4   17 1
    18    5   18 1
    19    8   19 2
    20   10   20 1
    21    6   21 1
    22    9   22 1
    23    9   23 1
    24    9   24 1
    25   20   25 1
    26   20   26 1
    27   20   27 1
    28   11   28 1
    29   11   29 1
    30   30   31 ar
    31   31   32 ar
    32   32   33 ar
    33   33   34 ar
    34   22   30 ar
    35   22   34 ar
    36   30   35 1
    37   31   36 1
    38   32   37 1
    39   33   38 1
    40   34   39 1
@<SCITEGIC>ATOM_PROPERTY
Formal Charge
SciTegic.value.StringValue
1 0
2 0
3 0
4 0
5 0
6 0
7 0
8 0
9 0
10 0
11 0
12 0
13 0
14 0
15 0
16 0
17 0
18 0
19 0
20 0
21 0
22 0
23 0
24 0
25 0
26 0
27 0
28 0
29 0
30 0
31 0
32 0
33 0
34 0
35 0
36 0
37 0
38 0
39 0

@<SCITEGIC>ATOM_PROPERTY
pdb_tempFactor
SciTegic.value.DoubleValue
1 0.00
2 0.00
3 0.00
4 0.00
5 0.00
6 0.00
7 0.00
8 0.00
9 0.00
10 0.00
11 0.00
12 0.00
13 0.00
14 0.00
15 0.00
16 0.00
17 0.00
18 0.00
19 0.00
20 0.00
21 0.00
22 0.00
23 0.00
24 0.00
25 0.00
26 0.00
27 0.00
28 0.00
29 0.00
30 0.00
31 0.00
32 0.00
33 0.00
34 0.00
35 0.00
36 0.00
37 0.00
38 0.00
39 0.00

@<SCITEGIC>ATOM_PROPERTY
pdb_occupancy
SciTegic.value.DoubleValue
1 1.00
2 1.00
3 1.00
4 1.00
5 1.00
6 1.00
7 1.00
8 1.00
9 1.00
10 1.00
11 1.00
12 1.00
13 1.00
14 1.00
15 1.00
16 1.00
17 1.00
18 1.00
19 1.00
20 1.00
21 1.00
22 1.00
23 1.00
24 1.00
25 1.00
26 1.00
27 1.00
28 1.00
29 1.00
30 1.00
31 1.00
32 1.00
33 1.00
34 1.00
35 1.00
36 1.00
37 1.00
38 1.00
39 1.00

#	copyright 2023 drugdesign.org
#	Creation time:	2024-01-11T10:58:41Z

@<SCITEGIC>ROOT_PROPERTY
Ligand:MaximumNumberOfAtoms
SciTegic.value.IntegerValue
100

@<SCITEGIC>ROOT_PROPERTY
Ligand:HydrogenAtomsCountTowardsMaximum
SciTegic.value.BooleanValue
FALSE

@<TRIPOS>MOLECULE
Molecule
   39    40     0 0 0
SMALL
USER_CHARGES


@<TRIPOS>ATOM
      1 C1           -2.140245    1.320149    0.202747 C.3      1 SUBUNIT    0.0879
      2 C2           -0.832331    0.591046   -0.180180 C.3      1 SUBUNIT    0.0045
      3 C3           -0.876137   -0.850637    0.305061 C.3      1 SUBUNIT    0.0823
      4 C4           -2.086055   -1.409775    0.281731 C.3      1 SUBUNIT    0.0238
      5 N5           -3.298017   -0.890032    0.296757 N.3      1 SUBUNIT   -0.2973
      6 C6           -3.310858    0.661489    0.190089 C.3      1 SUBUNIT    0.0819
      7 O13           0.334306   -1.529643   -0.055079 O.3      1 SUBUNIT   -0.3109
      8 C15           0.248226   -2.617704   -0.652874 C.2      1 SUBUNIT    0.2656
      9 C17           1.384698   -3.355010   -1.313433 C.3      1 SUBUNIT    0.0589
     10 O19          -2.119487    1.497956    1.646457 O.3      1 SUBUNIT   -0.3783
     11 N21          -4.676118    1.034017   -0.020434 N.3      1 SUBUNIT   -0.3137
     12 H23          -2.130402    2.072534   -0.455904 H        1 SUBUNIT    0.0635
     13 H25          -0.726492    0.602188   -1.174500 H        1 SUBUNIT    0.0322
     14 H27          -0.056701    1.059052    0.243339 H        1 SUBUNIT    0.0322
     15 H29          -0.817533   -0.942628    1.299095 H        1 SUBUNIT    0.0625
     16 H31          -2.075662   -1.957482   -0.554874 H        1 SUBUNIT    0.0456
     17 H33          -2.080315   -2.015519    1.077371 H        1 SUBUNIT    0.0456
     18 H35          -3.812048   -1.264231   -0.475090 H        1 SUBUNIT    0.1239
     19 O43          -0.891161   -3.066533   -0.814349 O.2      1 SUBUNIT   -0.2662
     20 C39          -2.633591    2.758755    2.098053 C.3      1 SUBUNIT    0.0360
     21 H41          -3.031832    1.586206    0.449018 H        1 SUBUNIT    0.0661
     22 C43           2.601943   -3.414477   -0.435437 C.ar     1 SUBUNIT   -0.0366
     23 H45           1.088520   -4.287918   -1.518274 H        1 SUBUNIT    0.0423
     24 H47           1.622735   -2.886017   -2.163954 H        1 SUBUNIT    0.0423
     25 H49          -2.584475    2.801164    3.095905 H        1 SUBUNIT    0.0530
     26 H51          -3.585617    2.854493    1.807303 H        1 SUBUNIT    0.0530
     27 H53          -2.089562    3.500738    1.706200 H        1 SUBUNIT    0.0530
     28 H55          -4.742714    2.028833   -0.096751 H        1 SUBUNIT    0.1200
     29 H57          -5.230175    0.721565    0.751220 H        1 SUBUNIT    0.1200
     30 C59           3.740695   -2.661318   -0.699046 C.ar     1 SUBUNIT   -0.0398
     31 C60           4.844838   -2.765313    0.144737 C.ar     1 SUBUNIT    0.0408
     32 C61           4.807248   -3.612009    1.246659 C.ar     1 SUBUNIT   -0.0435
     33 C62           3.667655   -4.361961    1.509523 C.ar     1 SUBUNIT   -0.0605
     34 C63           2.570058   -4.263630    0.665572 C.ar     1 SUBUNIT   -0.0584
     35 H70           3.767141   -2.048907   -1.489143 H        1 SUBUNIT    0.0641
     36 Cl72          6.273119   -1.847744   -0.173037 Cl       1 SUBUNIT   -0.0843
     37 H74           5.601200   -3.681339    1.850675 H        1 SUBUNIT    0.0638
     38 H76           3.638292   -4.969775    2.303058 H        1 SUBUNIT    0.0623
     39 H78           1.751072   -4.806864    0.850392 H        1 SUBUNIT    0.0626
@<TRIPOS>BOND
     1    1    2 1
     2    2    3 1
     3    3    4 1
     4    4    5 1
     5    5    6 1
     6    6    1 1
     7    3    7 1
     8    7    8 1
     9    8    9 1
    10    1   10 1
    11    6   11 1
    12    1   12 1
    13    2   13 1
    14    2   14 1
    15    3   15 1
    16    4   16 1
    17    4   17 1
    18    5   18 1
    19    8   19 2
    20   10   20 1
    21    6   21 1
    22    9   22 1
    23    9   23 1
    24    9   24 1
    25   20   25 1
    26   20   26 1
    27   20   27 1
    28   11   28 1
    29   11   29 1
    30   30   31 ar
    31   31   32 ar
    32   32   33 ar
    33   33   34 ar
    34   22   30 ar
    35   22   34 ar
    36   30   35 1
    37   31   36 1
    38   32   37 1
    39   33   38 1
    40   34   39 1
@<SCITEGIC>ATOM_PROPERTY
Formal Charge
SciTegic.value.StringValue
1 0
2 0
3 0
4 0
5 0
6 0
7 0
8 0
9 0
10 0
11 0
12 0
13 0
14 0
15 0
16 0
17 0
18 0
19 0
20 0
21 0
22 0
23 0
24 0
25 0
26 0
27 0
28 0
29 0
30 0
31 0
32 0
33 0
34 0
35 0
36 0
37 0
38 0
39 0

@<SCITEGIC>ATOM_PROPERTY
pdb_tempFactor
SciTegic.value.DoubleValue
1 0.00
2 0.00
3 0.00
4 0.00
5 0.00
6 0.00
7 0.00
8 0.00
9 0.00
10 0.00
11 0.00
12 0.00
13 0.00
14 0.00
15 0.00
16 0.00
17 0.00
18 0.00
19 0.00
20 0.00
21 0.00
22 0.00
23 0.00
24 0.00
25 0.00
26 0.00
27 0.00
28 0.00
29 0.00
30 0.00
31 0.00
32 0.00
33 0.00
34 0.00
35 0.00
36 0.00
37 0.00
38 0.00
39 0.00

@<SCITEGIC>ATOM_PROPERTY
pdb_occupancy
SciTegic.value.DoubleValue
1 1.00
2 1.00
3 1.00
4 1.00
5 1.00
6 1.00
7 1.00
8 1.00
9 1.00
10 1.00
11 1.00
12 1.00
13 1.00
14 1.00
15 1.00
16 1.00
17 1.00
18 1.00
19 1.00
20 1.00
21 1.00
22 1.00
23 1.00
24 1.00
25 1.00
26 1.00
27 1.00
28 1.00
29 1.00
30 1.00
31 1.00
32 1.00
33 1.00
34 1.00
35 1.00
36 1.00
37 1.00
38 1.00
39 1.00

#	copyright 2023 drugdesign.org
#	Creation time:	2024-01-11T10:58:41Z

@<SCITEGIC>ROOT_PROPERTY
Ligand:MaximumNumberOfAtoms
SciTegic.value.IntegerValue
100

@<SCITEGIC>ROOT_PROPERTY
Ligand:HydrogenAtomsCountTowardsMaximum
SciTegic.value.BooleanValue
FALSE

@<TRIPOS>MOLECULE
Molecule
   39    40     0 0 0
SMALL
USER_CHARGES


@<TRIPOS>ATOM
      1 C1           -2.140245    1.320149    0.202747 C.3      1 SUBUNIT    0.0879
      2 C2           -0.832331    0.591046   -0.180180 C.3      1 SUBUNIT    0.0045
      3 C3           -0.960267   -0.917271    0.084211 C.3      1 SUBUNIT    0.0823
      4 C4           -2.086055   -1.409775    0.281731 C.3      1 SUBUNIT    0.0238
      5 N5           -3.298017   -0.890032    0.296757 N.3      1 SUBUNIT   -0.2973
      6 C6           -3.279983    0.712916    0.331041 C.3      1 SUBUNIT    0.0819
      7 O13           0.334306   -1.529643   -0.055079 O.3      1 SUBUNIT   -0.3109
      8 C15           0.230539   -2.764056   -0.173833 C.2      1 SUBUNIT    0.2656
      9 C17           1.290180   -3.692085   -0.709977 C.3      1 SUBUNIT    0.0589
     10 O19          -2.119487    1.497956    1.646457 O.3      1 SUBUNIT   -0.3783
     11 N21          -4.592330    1.149081    0.307681 N.3      1 SUBUNIT   -0.3137
     12 H23          -2.125142    2.015983   -0.515297 H        1 SUBUNIT    0.0635
     13 H25          -0.644614    0.740164   -1.151018 H        1 SUBUNIT    0.0322
     14 H27          -0.079101    0.958054    0.365667 H        1 SUBUNIT    0.0322
     15 H29          -1.334284   -1.681537    0.609577 H        1 SUBUNIT    0.0625
     16 H31          -2.150100   -2.127468   -0.411677 H        1 SUBUNIT    0.0456
     17 H33          -2.001267   -1.826622    1.186745 H        1 SUBUNIT    0.0456
     18 H35          -3.784297   -1.187410   -0.524887 H        1 SUBUNIT    0.1239
     19 O43          -0.882046   -3.246404    0.061152 O.2      1 SUBUNIT   -0.2662
     20 C39          -2.104278    2.866195    2.077210 C.3      1 SUBUNIT    0.0360
     21 H41          -2.975725    1.517611    0.840838 H        1 SUBUNIT    0.0661
     22 C43           2.640604   -3.404856   -0.118409 C.ar     1 SUBUNIT   -0.0366
     23 H45           1.035408   -4.633913   -0.490770 H        1 SUBUNIT    0.0423
     24 H47           1.342723   -3.582906   -1.702610 H        1 SUBUNIT    0.0423
     25 H49          -2.090511    2.901428    3.076454 H        1 SUBUNIT    0.0530
     26 H51          -2.922157    3.331739    1.738986 H        1 SUBUNIT    0.0530
     27 H53          -1.289546    3.320547    1.716890 H        1 SUBUNIT    0.0530
     28 H55          -4.612295    2.148628    0.328285 H        1 SUBUNIT    0.1200
     29 H57          -5.077674    0.789978    1.104889 H        1 SUBUNIT    0.1200
     30 C59           3.721889   -3.013897   -0.900372 C.ar     1 SUBUNIT   -0.0398
     31 C60           4.954680   -2.771206   -0.297673 C.ar     1 SUBUNIT    0.0408
     32 C61           5.102377   -2.913154    1.077309 C.ar     1 SUBUNIT   -0.0435
     33 C62           4.020157   -3.301697    1.857073 C.ar     1 SUBUNIT   -0.0605
     34 C63           2.793744   -3.549921    1.256292 C.ar     1 SUBUNIT   -0.0584
     35 H70           3.615529   -2.907558   -1.888997 H        1 SUBUNIT    0.0641
     36 Cl72          6.312915   -2.297142   -1.253370 Cl       1 SUBUNIT   -0.0843
     37 H74           5.988402   -2.735432    1.505532 H        1 SUBUNIT    0.0638
     38 H76           4.124274   -3.402063    2.846561 H        1 SUBUNIT    0.0623
     39 H78           2.015250   -3.834904    1.815518 H        1 SUBUNIT    0.0626
@<TRIPOS>BOND
     1    1    2 1
     2    2    3 1
     3    3    4 1
     4    4    5 1
     5    5    6 1
     6    6    1 1
     7    3    7 1
     8    7    8 1
     9    8    9 1
    10    1   10 1
    11    6   11 1
    12    1   12 1
    13    2   13 1
    14    2   14 1
    15    3   15 1
    16    4   16 1
    17    4   17 1
    18    5   18 1
    19    8   19 2
    20   10   20 1
    21    6   21 1
    22    9   22 1
    23    9   23 1
    24    9   24 1
    25   20   25 1
    26   20   26 1
    27   20   27 1
    28   11   28 1
    29   11   29 1
    30   30   31 ar
    31   31   32 ar
    32   32   33 ar
    33   33   34 ar
    34   22   30 ar
    35   22   34 ar
    36   30   35 1
    37   31   36 1
    38   32   37 1
    39   33   38 1
    40   34   39 1
@<SCITEGIC>ATOM_PROPERTY
Formal Charge
SciTegic.value.StringValue
1 0
2 0
3 0
4 0
5 0
6 0
7 0
8 0
9 0
10 0
11 0
12 0
13 0
14 0
15 0
16 0
17 0
18 0
19 0
20 0
21 0
22 0
23 0
24 0
25 0
26 0
27 0
28 0
29 0
30 0
31 0
32 0
33 0
34 0
35 0
36 0
37 0
38 0
39 0

@<SCITEGIC>ATOM_PROPERTY
pdb_tempFactor
SciTegic.value.DoubleValue
1 0.00
2 0.00
3 0.00
4 0.00
5 0.00
6 0.00
7 0.00
8 0.00
9 0.00
10 0.00
11 0.00
12 0.00
13 0.00
14 0.00
15 0.00
16 0.00
17 0.00
18 0.00
19 0.00
20 0.00
21 0.00
22 0.00
23 0.00
24 0.00
25 0.00
26 0.00
27 0.00
28 0.00
29 0.00
30 0.00
31 0.00
32 0.00
33 0.00
34 0.00
35 0.00
36 0.00
37 0.00
38 0.00
39 0.00

@<SCITEGIC>ATOM_PROPERTY
pdb_occupancy
SciTegic.value.DoubleValue
1 1.00
2 1.00
3 1.00
4 1.00
5 1.00
6 1.00
7 1.00
8 1.00
9 1.00
10 1.00
11 1.00
12 1.00
13 1.00
14 1.00
15 1.00
16 1.00
17 1.00
18 1.00
19 1.00
20 1.00
21 1.00
22 1.00
23 1.00
24 1.00
25 1.00
26 1.00
27 1.00
28 1.00
29 1.00
30 1.00
31 1.00
32 1.00
33 1.00
34 1.00
35 1.00
36 1.00
37 1.00
38 1.00
39 1.00

#	copyright 2023 drugdesign.org
#	Creation time:	2024-01-11T10:58:41Z

@<SCITEGIC>ROOT_PROPERTY
Ligand:MaximumNumberOfAtoms
SciTegic.value.IntegerValue
100

@<SCITEGIC>ROOT_PROPERTY
Ligand:HydrogenAtomsCountTowardsMaximum
SciTegic.value.BooleanValue
FALSE

@<TRIPOS>MOLECULE
Molecule
   39    40     0 0 0
SMALL
USER_CHARGES


@<TRIPOS>ATOM
      1 C1           -2.140245    1.320149    0.202747 C.3      1 SUBUNIT    0.0879
      2 C2           -0.832331    0.591046   -0.180180 C.3      1 SUBUNIT    0.0045
      3 C3           -1.000315   -0.959483   -0.044221 C.3      1 SUBUNIT    0.0823
      4 C4           -2.086055   -1.409775    0.281731 C.3      1 SUBUNIT    0.0238
      5 N5           -3.298017   -0.890032    0.296757 N.3      1 SUBUNIT   -0.2973
      6 C6           -3.221922    0.785125    0.541695 C.3      1 SUBUNIT    0.0819
      7 O13           0.306351   -1.625216   -0.291548 O.3      1 SUBUNIT   -0.3109
      8 C15           0.230539   -2.764056   -0.173833 C.2      1 SUBUNIT    0.2656
      9 C17           1.424650   -3.664772   -0.359137 C.3      1 SUBUNIT    0.0589
     10 O19          -2.119487    1.497956    1.646457 O.3      1 SUBUNIT   -0.3783
     11 N21          -4.243714    1.362255    1.083047 N.3      1 SUBUNIT   -0.3137
     12 H23          -2.138317    1.927660   -0.591562 H        1 SUBUNIT    0.0635
     13 H25          -0.597966    0.813627   -1.126505 H        1 SUBUNIT    0.0322
     14 H27          -0.097713    0.895572    0.426121 H        1 SUBUNIT    0.0322
     15 H29          -1.482198   -1.832854   -0.115017 H        1 SUBUNIT    0.0625
     16 H31          -2.186672   -2.217421   -0.299289 H        1 SUBUNIT    0.0456
     17 H33          -1.944059   -1.695874    1.229352 H        1 SUBUNIT    0.0456
     18 H35          -3.903528   -0.895903   -0.317370 H        1 SUBUNIT    0.1239
     19 O43          -0.888991   -3.279004   -0.258708 O.2      1 SUBUNIT   -0.2662
     20 C39          -1.305048    2.588323    2.099941 C.3      1 SUBUNIT    0.0360
     21 H41          -3.453524    1.757365    0.508398 H        1 SUBUNIT    0.0661
     22 C43           2.267788   -3.742858    0.881476 C.ar     1 SUBUNIT   -0.0366
     23 H45           1.103480   -4.583340   -0.589532 H        1 SUBUNIT    0.0423
     24 H47           1.984130   -3.309201   -1.107837 H        1 SUBUNIT    0.0423
     25 H49          -1.344657    2.642113    3.097667 H        1 SUBUNIT    0.0530
     26 H51          -1.643073    3.443460    1.706835 H        1 SUBUNIT    0.0530
     27 H53          -0.358875    2.440549    1.811888 H        1 SUBUNIT    0.0530
     28 H55          -4.066763    2.342701    1.168669 H        1 SUBUNIT    0.1200
     29 H57          -4.405471    0.972799    1.989807 H        1 SUBUNIT    0.1200
     30 C59           3.536695   -3.178262    0.949287 C.ar     1 SUBUNIT   -0.0398
     31 C60           4.278147   -3.291411    2.123751 C.ar     1 SUBUNIT    0.0408
     32 C61           3.751363   -3.959318    3.223269 C.ar     1 SUBUNIT   -0.0435
     33 C62           2.482429   -4.520772    3.154166 C.ar     1 SUBUNIT   -0.0605
     34 C63           1.746221   -4.413997    1.982312 C.ar     1 SUBUNIT   -0.0584
     35 H70           3.914796   -2.694080    0.160233 H        1 SUBUNIT    0.0641
     36 Cl72          5.861156   -2.608009    2.223433 Cl       1 SUBUNIT   -0.0843
     37 H74           4.286271   -4.035721    4.064716 H        1 SUBUNIT    0.0638
     38 H76           2.101243   -4.999591    3.945007 H        1 SUBUNIT    0.0623
     39 H78           0.834909   -4.822279    1.929233 H        1 SUBUNIT    0.0626
@<TRIPOS>BOND
     1    1    2 1
     2    2    3 1
     3    3    4 1
     4    4    5 1
     5    5    6 1
     6    6    1 1
     7    3    7 1
     8    7    8 1
     9    8    9 1
    10    1   10 1
    11    6   11 1
    12    1   12 1
    13    2   13 1
    14    2   14 1
    15    3   15 1
    16    4   16 1
    17    4   17 1
    18    5   18 1
    19    8   19 2
    20   10   20 1
    21    6   21 1
    22    9   22 1
    23    9   23 1
    24    9   24 1
    25   20   25 1
    26   20   26 1
    27   20   27 1
    28   11   28 1
    29   11   29 1
    30   30   31 ar
    31   31   32 ar
    32   32   33 ar
    33   33   34 ar
    34   22   30 ar
    35   22   34 ar
    36   30   35 1
    37   31   36 1
    38   32   37 1
    39   33   38 1
    40   34   39 1
@<SCITEGIC>ATOM_PROPERTY
Formal Charge
SciTegic.value.StringValue
1 0
2 0
3 0
4 0
5 0
6 0
7 0
8 0
9 0
10 0
11 0
12 0
13 0
14 0
15 0
16 0
17 0
18 0
19 0
20 0
21 0
22 0
23 0
24 0
25 0
26 0
27 0
28 0
29 0
30 0
31 0
32 0
33 0
34 0
35 0
36 0
37 0
38 0
39 0

@<SCITEGIC>ATOM_PROPERTY
pdb_tempFactor
SciTegic.value.DoubleValue
1 0.00
2 0.00
3 0.00
4 0.00
5 0.00
6 0.00
7 0.00
8 0.00
9 0.00
10 0.00
11 0.00
12 0.00
13 0.00
14 0.00
15 0.00
16 0.00
17 0.00
18 0.00
19 0.00
20 0.00
21 0.00
22 0.00
23 0.00
24 0.00
25 0.00
26 0.00
27 0.00
28 0.00
29 0.00
30 0.00
31 0.00
32 0.00
33 0.00
34 0.00
35 0.00
36 0.00
37 0.00
38 0.00
39 0.00

@<SCITEGIC>ATOM_PROPERTY
pdb_occupancy
SciTegic.value.DoubleValue
1 1.00
2 1.00
3 1.00
4 1.00
5 1.00
6 1.00
7 1.00
8 1.00
9 1.00
10 1.00
11 1.00
12 1.00
13 1.00
14 1.00
15 1.00
16 1.00
17 1.00
18 1.00
19 1.00
20 1.00
21 1.00
22 1.00
23 1.00
24 1.00
25 1.00
26 1.00
27 1.00
28 1.00
29 1.00
30 1.00
31 1.00
32 1.00
33 1.00
34 1.00
35 1.00
36 1.00
37 1.00
38 1.00
39 1.00

#	copyright 2023 drugdesign.org
#	Creation time:	2024-01-11T10:58:41Z

@<SCITEGIC>ROOT_PROPERTY
Ligand:MaximumNumberOfAtoms
SciTegic.value.IntegerValue
100

@<SCITEGIC>ROOT_PROPERTY
Ligand:HydrogenAtomsCountTowardsMaximum
SciTegic.value.BooleanValue
FALSE

@<TRIPOS>MOLECULE
Molecule
   39    40     0 0 0
SMALL
USER_CHARGES


@<TRIPOS>ATOM
      1 C1           -2.140245    1.320149    0.202747 C.3      1 SUBUNIT    0.0879
      2 C2           -0.832331    0.591046   -0.180180 C.3      1 SUBUNIT    0.0045
      3 C3           -1.118232   -1.033399   -0.310506 C.3      1 SUBUNIT    0.0823
      4 C4           -2.086055   -1.409775    0.281731 C.3      1 SUBUNIT    0.0238
      5 N5           -3.298017   -0.890032    0.296757 N.3      1 SUBUNIT   -0.2973
      6 C6           -3.053313    0.869960    0.876135 C.3      1 SUBUNIT    0.0819
      7 O13           0.306351   -1.625216   -0.291548 O.3      1 SUBUNIT   -0.3109
      8 C15           0.230539   -2.764056   -0.173833 C.2      1 SUBUNIT    0.2656
      9 C17           1.451091   -3.627876    0.014837 C.3      1 SUBUNIT    0.0589
     10 O19          -2.119487    1.497956    1.646457 O.3      1 SUBUNIT   -0.3783
     11 N21          -4.243714    1.362255    1.083047 N.3      1 SUBUNIT   -0.3137
     12 H23          -2.215887    1.803449   -0.669434 H        1 SUBUNIT    0.0635
     13 H25          -0.500532    0.941516   -1.056011 H        1 SUBUNIT    0.0322
     14 H27          -0.143096    0.751659    0.526332 H        1 SUBUNIT    0.0322
     15 H29          -1.521005   -1.431580   -1.134658 H        1 SUBUNIT    0.0625
     16 H31          -2.221219   -2.349515   -0.032306 H        1 SUBUNIT    0.0456
     17 H33          -1.804962   -1.415689    1.241394 H        1 SUBUNIT    0.0456
     18 H35          -3.700112   -0.907000   -0.618684 H        1 SUBUNIT    0.1239
     19 O43          -0.802227   -3.316552   -0.566089 O.2      1 SUBUNIT   -0.2662
     20 C39          -1.015715    2.273387    2.134568 C.3      1 SUBUNIT    0.0360
     21 H41          -2.678252    1.118321    1.769245 H        1 SUBUNIT    0.0661
     22 C43           1.901086   -3.659939    1.447519 C.ar     1 SUBUNIT   -0.0366
     23 H45           1.235252   -4.559774   -0.276677 H        1 SUBUNIT    0.0423
     24 H47           2.193408   -3.265333   -0.548659 H        1 SUBUNIT    0.0423
     25 H49          -1.074647    2.348209    3.129982 H        1 SUBUNIT    0.0530
     26 H51          -1.044971    3.187357    1.729777 H        1 SUBUNIT    0.0530
     27 H53          -0.157013    1.825900    1.884686 H        1 SUBUNIT    0.0530
     28 H55          -4.163783    2.308485    1.396379 H        1 SUBUNIT    0.1200
     29 H57          -4.712945    0.819480    1.779661 H        1 SUBUNIT    0.1200
     30 C59           3.080379   -3.053193    1.865392 C.ar     1 SUBUNIT   -0.0398
     31 C60           3.453159   -3.124602    3.206234 C.ar     1 SUBUNIT    0.0408
     32 C61           2.649086   -3.793009    4.122333 C.ar     1 SUBUNIT   -0.0435
     33 C62           1.470055   -4.396635    3.703140 C.ar     1 SUBUNIT   -0.0605
     34 C63           1.101711   -4.331385    2.366462 C.ar     1 SUBUNIT   -0.0584
     35 H70           3.657341   -2.568653    1.207869 H        1 SUBUNIT    0.0641
     36 Cl72          4.920577   -2.388379    3.742481 Cl       1 SUBUNIT   -0.0843
     37 H74           2.919572   -3.839389    5.083938 H        1 SUBUNIT    0.0638
     38 H76           0.889482   -4.875888    4.361356 H        1 SUBUNIT    0.0623
     39 H78           0.256100   -4.770001    2.062227 H        1 SUBUNIT    0.0626
@<TRIPOS>BOND
     1    1    2 1
     2    2    3 1
     3    3    4 1
     4    4    5 1
     5    5    6 1
     6    6    1 1
     7    3    7 1
     8    7    8 1
     9    8    9 1
    10    1   10 1
    11    6   11 1
    12    1   12 1
    13    2   13 1
    14    2   14 1
    15    3   15 1
    16    4   16 1
    17    4   17 1
    18    5   18 1
    19    8   19 2
    20   10   20 1
    21    6   21 1
    22    9   22 1
    23    9   23 1
    24    9   24 1
    25   20   25 1
    26   20   26 1
    27   20   27 1
    28   11   28 1
    29   11   29 1
    30   30   31 ar
    31   31   32 ar
    32   32   33 ar
    33   33   34 ar
    34   22   30 ar
    35   22   34 ar
    36   30   35 1
    37   31   36 1
    38   32   37 1
    39   33   38 1
    40   34   39 1
@<SCITEGIC>ATOM_PROPERTY
Formal Charge
SciTegic.value.StringValue
1 0
2 0
3 0
4 0
5 0
6 0
7 0
8 0
9 0
10 0
11 0
12 0
13 0
14 0
15 0
16 0
17 0
18 0
19 0
20 0
21 0
22 0
23 0
24 0
25 0
26 0
27 0
28 0
29 0
30 0
31 0
32 0
33 0
34 0
35 0
36 0
37 0
38 0
39 0

@<SCITEGIC>ATOM_PROPERTY
pdb_tempFactor
SciTegic.value.DoubleValue
1 0.00
2 0.00
3 0.00
4 0.00
5 0.00
6 0.00
7 0.00
8 0.00
9 0.00
10 0.00
11 0.00
12 0.00
13 0.00
14 0.00
15 0.00
16 0.00
17 0.00
18 0.00
19 0.00
20 0.00
21 0.00
22 0.00
23 0.00
24 0.00
25 0.00
26 0.00
27 0.00
28 0.00
29 0.00
30 0.00
31 0.00
32 0.00
33 0.00
34 0.00
35 0.00
36 0.00
37 0.00
38 0.00
39 0.00

@<SCITEGIC>ATOM_PROPERTY
pdb_occupancy
SciTegic.value.DoubleValue
1 1.00
2 1.00
3 1.00
4 1.00
5 1.00
6 1.00
7 1.00
8 1.00
9 1.00
10 1.00
11 1.00
12 1.00
13 1.00
14 1.00
15 1.00
16 1.00
17 1.00
18 1.00
19 1.00
20 1.00
21 1.00
22 1.00
23 1.00
24 1.00
25 1.00
26 1.00
27 1.00
28 1.00
29 1.00
30 1.00
31 1.00
32 1.00
33 1.00
34 1.00
35 1.00
36 1.00
37 1.00
38 1.00
39 1.00

#	copyright 2023 drugdesign.org
#	Creation time:	2024-01-11T10:58:41Z

@<SCITEGIC>ROOT_PROPERTY
Ligand:MaximumNumberOfAtoms
SciTegic.value.IntegerValue
100

@<SCITEGIC>ROOT_PROPERTY
Ligand:HydrogenAtomsCountTowardsMaximum
SciTegic.value.BooleanValue
FALSE

@<TRIPOS>MOLECULE
Molecule
   39    40     0 0 0
SMALL
USER_CHARGES


@<TRIPOS>ATOM
      1 C1           -2.140245    1.320149    0.202747 C.3      1 SUBUNIT    0.0879
      2 C2           -0.832331    0.591046   -0.180180 C.3      1 SUBUNIT    0.0045
      3 C3           -1.203819   -1.077961   -0.483598 C.3      1 SUBUNIT    0.0823
      4 C4           -2.086055   -1.409775    0.281731 C.3      1 SUBUNIT    0.0238
      5 N5           -3.298017   -0.890032    0.296757 N.3      1 SUBUNIT   -0.2973
      6 C6           -2.996368    0.915811    1.027284 C.3      1 SUBUNIT    0.0819
      7 O13           0.306351   -1.625216   -0.291548 O.3      1 SUBUNIT   -0.3109
      8 C15           0.230539   -2.764056   -0.173833 C.2      1 SUBUNIT    0.2656
      9 C17           1.451091   -3.627876    0.014837 C.3      1 SUBUNIT    0.0589
     10 O19          -2.119487    1.497956    1.646457 O.3      1 SUBUNIT   -0.3783
     11 N21          -4.243714    1.362255    1.083047 N.3      1 SUBUNIT   -0.3137
     12 H23          -2.254421    1.749476   -0.693156 H        1 SUBUNIT    0.0635
     13 H25          -0.443338    1.005324   -1.003015 H        1 SUBUNIT    0.0322
     14 H27          -0.175347    0.659598    0.570601 H        1 SUBUNIT    0.0322
     15 H29          -1.595788   -1.403519   -1.344047 H        1 SUBUNIT    0.0625
     16 H31          -2.216140   -2.390013    0.132696 H        1 SUBUNIT    0.0456
     17 H33          -1.717292   -1.257594    1.198713 H        1 SUBUNIT    0.0456
     18 H35          -3.681206   -0.845075   -0.625818 H        1 SUBUNIT    0.1239
     19 O43          -0.802227   -3.316552   -0.566089 O.2      1 SUBUNIT   -0.2662
     20 C39          -0.844720    1.882528    2.180248 C.3      1 SUBUNIT    0.0360
     21 H41          -2.621467    1.150110    1.924253 H        1 SUBUNIT    0.0661
     22 C43           1.901086   -3.659939    1.447519 C.ar     1 SUBUNIT   -0.0366
     23 H45           1.235252   -4.559774   -0.276677 H        1 SUBUNIT    0.0423
     24 H47           2.193408   -3.265333   -0.548659 H        1 SUBUNIT    0.0423
     25 H49          -0.915072    1.983453    3.172611 H        1 SUBUNIT    0.0530
     26 H51          -0.562494    2.752747    1.776366 H        1 SUBUNIT    0.0530
     27 H53          -0.166714    1.179840    1.964394 H        1 SUBUNIT    0.0530
     28 H55          -4.256937    2.341800    0.882461 H        1 SUBUNIT    0.1200
     29 H57          -4.613930    1.204966    1.998610 H        1 SUBUNIT    0.1200
     30 C59           3.080379   -3.053193    1.865392 C.ar     1 SUBUNIT   -0.0398
     31 C60           3.453159   -3.124602    3.206234 C.ar     1 SUBUNIT    0.0408
     32 C61           2.649086   -3.793009    4.122333 C.ar     1 SUBUNIT   -0.0435
     33 C62           1.470055   -4.396635    3.703140 C.ar     1 SUBUNIT   -0.0605
     34 C63           1.101711   -4.331385    2.366462 C.ar     1 SUBUNIT   -0.0584
     35 H70           3.657341   -2.568653    1.207869 H        1 SUBUNIT    0.0641
     36 Cl72          4.920577   -2.388379    3.742481 Cl       1 SUBUNIT   -0.0843
     37 H74           2.919572   -3.839389    5.083938 H        1 SUBUNIT    0.0638
     38 H76           0.889482   -4.875888    4.361356 H        1 SUBUNIT    0.0623
     39 H78           0.256100   -4.770001    2.062227 H        1 SUBUNIT    0.0626
@<TRIPOS>BOND
     1    1    2 1
     2    2    3 1
     3    3    4 1
     4    4    5 1
     5    5    6 1
     6    6    1 1
     7    3    7 1
     8    7    8 1
     9    8    9 1
    10    1   10 1
    11    6   11 1
    12    1   12 1
    13    2   13 1
    14    2   14 1
    15    3   15 1
    16    4   16 1
    17    4   17 1
    18    5   18 1
    19    8   19 2
    20   10   20 1
    21    6   21 1
    22    9   22 1
    23    9   23 1
    24    9   24 1
    25   20   25 1
    26   20   26 1
    27   20   27 1
    28   11   28 1
    29   11   29 1
    30   30   31 ar
    31   31   32 ar
    32   32   33 ar
    33   33   34 ar
    34   22   30 ar
    35   22   34 ar
    36   30   35 1
    37   31   36 1
    38   32   37 1
    39   33   38 1
    40   34   39 1
@<SCITEGIC>ATOM_PROPERTY
Formal Charge
SciTegic.value.StringValue
1 0
2 0
3 0
4 0
5 0
6 0
7 0
8 0
9 0
10 0
11 0
12 0
13 0
14 0
15 0
16 0
17 0
18 0
19 0
20 0
21 0
22 0
23 0
24 0
25 0
26 0
27 0
28 0
29 0
30 0
31 0
32 0
33 0
34 0
35 0
36 0
37 0
38 0
39 0

@<SCITEGIC>ATOM_PROPERTY
pdb_tempFactor
SciTegic.value.DoubleValue
1 0.00
2 0.00
3 0.00
4 0.00
5 0.00
6 0.00
7 0.00
8 0.00
9 0.00
10 0.00
11 0.00
12 0.00
13 0.00
14 0.00
15 0.00
16 0.00
17 0.00
18 0.00
19 0.00
20 0.00
21 0.00
22 0.00
23 0.00
24 0.00
25 0.00
26 0.00
27 0.00
28 0.00
29 0.00
30 0.00
31 0.00
32 0.00
33 0.00
34 0.00
35 0.00
36 0.00
37 0.00
38 0.00
39 0.00

@<SCITEGIC>ATOM_PROPERTY
pdb_occupancy
SciTegic.value.DoubleValue
1 1.00
2 1.00
3 1.00
4 1.00
5 1.00
6 1.00
7 1.00
8 1.00
9 1.00
10 1.00
11 1.00
12 1.00
13 1.00
14 1.00
15 1.00
16 1.00
17 1.00
18 1.00
19 1.00
20 1.00
21 1.00
22 1.00
23 1.00
24 1.00
25 1.00
26 1.00
27 1.00
28 1.00
29 1.00
30 1.00
31 1.00
32 1.00
33 1.00
34 1.00
35 1.00
36 1.00
37 1.00
38 1.00
39 1.00

#	copyright 2023 drugdesign.org
#	Creation time:	2024-01-11T10:58:41Z

@<SCITEGIC>ROOT_PROPERTY
Ligand:MaximumNumberOfAtoms
SciTegic.value.IntegerValue
100

@<SCITEGIC>ROOT_PROPERTY
Ligand:HydrogenAtomsCountTowardsMaximum
SciTegic.value.BooleanValue
FALSE

@<TRIPOS>MOLECULE
Molecule
   39    40     0 0 0
SMALL
USER_CHARGES


@<TRIPOS>ATOM
      1 C1           -1.959192    1.245687    0.290840 C.3      1 SUBUNIT    0.0879
      2 C2           -0.686243    0.406159    0.477145 C.3      1 SUBUNIT    0.0045
      3 C3           -0.930840   -1.019026   -0.029601 C.3      1 SUBUNIT    0.0823
      4 C4           -2.126568   -1.618919    0.753614 C.3      1 SUBUNIT    0.0238
      5 N5           -3.334405   -0.782158    0.568934 N.3      1 SUBUNIT   -0.2973
      6 C6           -3.099414    0.586805    1.084884 C.3      1 SUBUNIT    0.0819
      7 O13           0.258255   -1.775503    0.224844 O.3      1 SUBUNIT   -0.3109
      8 C15           0.263846   -3.041608   -0.364949 C.2      1 SUBUNIT    0.2656
      9 C17           1.447934   -3.933952   -0.116460 C.3      1 SUBUNIT    0.0589
     10 O19          -1.741449    2.597142    0.751573 O.3      1 SUBUNIT   -0.3783
     11 N21          -4.295425    1.413683    0.924701 N.3      1 SUBUNIT   -0.3137
     12 H23          -2.235263    1.278549   -0.775138 H        1 SUBUNIT    0.0635
     13 H25           0.063186    0.819101   -0.040384 H        1 SUBUNIT    0.0322
     14 H27          -0.445828    0.377461    1.447391 H        1 SUBUNIT    0.0322
     15 H29          -1.149810   -0.991906   -1.109711 H        1 SUBUNIT    0.0625
     16 H31          -2.310804   -2.542517    0.417423 H        1 SUBUNIT    0.0456
     17 H33          -1.897625   -1.657226    1.726299 H        1 SUBUNIT    0.0456
     18 H35          -3.573389   -0.739920   -0.432406 H        1 SUBUNIT    0.1239
     19 O43          -0.651459   -3.400389   -1.113385 O.2      1 SUBUNIT   -0.2662
     20 C39          -1.303969    2.648119    2.122466 C.3      1 SUBUNIT    0.0360
     21 H41          -2.844067    0.526094    2.151464 H        1 SUBUNIT    0.0661
     22 C43           1.846810   -3.777359    1.329215 C.ar     1 SUBUNIT   -0.0366
     23 H45           1.201290   -4.885491   -0.300145 H        1 SUBUNIT    0.0423
     24 H47           2.206785   -3.665317   -0.709739 H        1 SUBUNIT    0.0423
     25 H49          -1.167351    3.600745    2.394048 H        1 SUBUNIT    0.0530
     26 H51          -0.442943    2.148344    2.216884 H        1 SUBUNIT    0.0530
     27 H53          -1.997362    2.230722    2.709867 H        1 SUBUNIT    0.0530
     28 H55          -4.096267    2.374415    1.259160 H        1 SUBUNIT    0.1200
     29 H57          -5.079987    1.008386    1.456539 H        1 SUBUNIT    0.1200
     30 C59           3.112509   -3.321759    1.683133 C.ar     1 SUBUNIT   -0.0398
     31 C60           3.446596   -3.184848    3.027512 C.ar     1 SUBUNIT    0.0408
     32 C61           2.523422   -3.512084    4.014613 C.ar     1 SUBUNIT   -0.0435
     33 C62           1.260938   -3.971337    3.660409 C.ar     1 SUBUNIT   -0.0605
     34 C63           0.923763   -4.097935    2.318823 C.ar     1 SUBUNIT   -0.0584
     35 H70           3.779996   -3.093410    0.974390 H        1 SUBUNIT    0.0641
     36 Cl72          5.008738   -2.601985    3.478475 Cl       1 SUBUNIT   -0.0843
     37 H74           2.768263   -3.416844    4.979487 H        1 SUBUNIT    0.0638
     38 H76           0.597009   -4.210023    4.369089 H        1 SUBUNIT    0.0623
     39 H78           0.012627   -4.421247    2.063283 H        1 SUBUNIT    0.0626
@<TRIPOS>BOND
     1    1    2 1
     2    2    3 1
     3    3    4 1
     4    4    5 1
     5    5    6 1
     6    6    1 1
     7    3    7 1
     8    7    8 1
     9    8    9 1
    10    1   10 1
    11    6   11 1
    12    1   12 1
    13    2   13 1
    14    2   14 1
    15    3   15 1
    16    4   16 1
    17    4   17 1
    18    5   18 1
    19    8   19 2
    20   10   20 1
    21    6   21 1
    22    9   22 1
    23    9   23 1
    24    9   24 1
    25   20   25 1
    26   20   26 1
    27   20   27 1
    28   11   28 1
    29   11   29 1
    30   30   31 ar
    31   31   32 ar
    32   32   33 ar
    33   33   34 ar
    34   22   30 ar
    35   22   34 ar
    36   30   35 1
    37   31   36 1
    38   32   37 1
    39   33   38 1
    40   34   39 1
@<SCITEGIC>ATOM_PROPERTY
Formal Charge
SciTegic.value.StringValue
1 0
2 0
3 0
4 0
5 0
6 0
7 0
8 0
9 0
10 0
11 0
12 0
13 0
14 0
15 0
16 0
17 0
18 0
19 0
20 0
21 0
22 0
23 0
24 0
25 0
26 0
27 0
28 0
29 0
30 0
31 0
32 0
33 0
34 0
35 0
36 0
37 0
38 0
39 0

@<SCITEGIC>ATOM_PROPERTY
pdb_tempFactor
SciTegic.value.DoubleValue
1 0.00
2 0.00
3 0.00
4 0.00
5 0.00
6 0.00
7 0.00
8 0.00
9 0.00
10 0.00
11 0.00
12 0.00
13 0.00
14 0.00
15 0.00
16 0.00
17 0.00
18 0.00
19 0.00
20 0.00
21 0.00
22 0.00
23 0.00
24 0.00
25 0.00
26 0.00
27 0.00
28 0.00
29 0.00
30 0.00
31 0.00
32 0.00
33 0.00
34 0.00
35 0.00
36 0.00
37 0.00
38 0.00
39 0.00

@<SCITEGIC>ATOM_PROPERTY
pdb_occupancy
SciTegic.value.DoubleValue
1 1.00
2 1.00
3 1.00
4 1.00
5 1.00
6 1.00
7 1.00
8 1.00
9 1.00
10 1.00
11 1.00
12 1.00
13 1.00
14 1.00
15 1.00
16 1.00
17 1.00
18 1.00
19 1.00
20 1.00
21 1.00
22 1.00
23 1.00
24 1.00
25 1.00
26 1.00
27 1.00
28 1.00
29 1.00
30 1.00
31 1.00
32 1.00
33 1.00
34 1.00
35 1.00
36 1.00
37 1.00
38 1.00
39 1.00

#	copyright 2023 drugdesign.org
#	Creation time:	2024-01-11T10:58:41Z

@<SCITEGIC>ROOT_PROPERTY
Ligand:MaximumNumberOfAtoms
SciTegic.value.IntegerValue
100

@<SCITEGIC>ROOT_PROPERTY
Ligand:HydrogenAtomsCountTowardsMaximum
SciTegic.value.BooleanValue
FALSE

@<TRIPOS>MOLECULE
Molecule
   39    40     0 0 0
SMALL
USER_CHARGES


@<TRIPOS>ATOM
      1 C1           -1.959192    1.245687    0.290840 C.3      1 SUBUNIT    0.0879
      2 C2           -0.686243    0.406159    0.477145 C.3      1 SUBUNIT    0.0045
      3 C3           -0.930840   -1.019026   -0.029601 C.3      1 SUBUNIT    0.0823
      4 C4           -2.126568   -1.618919    0.753614 C.3      1 SUBUNIT    0.0238
      5 N5           -3.334405   -0.782158    0.568934 N.3      1 SUBUNIT   -0.2973
      6 C6           -3.099414    0.586805    1.084884 C.3      1 SUBUNIT    0.0819
      7 O13           0.258255   -1.775503    0.224844 O.3      1 SUBUNIT   -0.3109
      8 C15           0.593040   -2.668899   -0.795289 C.2      1 SUBUNIT    0.2656
      9 C17           1.905115   -3.396281   -0.698008 C.3      1 SUBUNIT    0.0589
     10 O19          -1.741449    2.597142    0.751573 O.3      1 SUBUNIT   -0.3783
     11 N21          -4.295425    1.413683    0.924701 N.3      1 SUBUNIT   -0.3137
     12 H23          -2.235263    1.278549   -0.775138 H        1 SUBUNIT    0.0635
     13 H25           0.063186    0.819101   -0.040384 H        1 SUBUNIT    0.0322
     14 H27          -0.445828    0.377461    1.447391 H        1 SUBUNIT    0.0322
     15 H29          -1.149810   -0.991906   -1.109711 H        1 SUBUNIT    0.0625
     16 H31          -2.310804   -2.542517    0.417423 H        1 SUBUNIT    0.0456
     17 H33          -1.897625   -1.657226    1.726299 H        1 SUBUNIT    0.0456
     18 H35          -3.573389   -0.739920   -0.432406 H        1 SUBUNIT    0.1239
     19 O43          -0.141207   -2.819197   -1.777610 O.2      1 SUBUNIT   -0.2662
     20 C39          -0.821302    2.660755    1.857293 C.3      1 SUBUNIT    0.0360
     21 H41          -2.844067    0.526094    2.151464 H        1 SUBUNIT    0.0661
     22 C43           2.082630   -3.835722    0.733418 C.ar     1 SUBUNIT   -0.0366
     23 H45           1.897059   -4.194454   -1.300382 H        1 SUBUNIT    0.0423
     24 H47           2.652491   -2.786505   -0.961832 H        1 SUBUNIT    0.0423
     25 H49          -0.703649    3.612884    2.139295 H        1 SUBUNIT    0.0530
     26 H51           0.062304    2.284641    1.578307 H        1 SUBUNIT    0.0530
     27 H53          -1.182635    2.128980    2.623263 H        1 SUBUNIT    0.0530
     28 H55          -4.039517    2.412465    1.031845 H        1 SUBUNIT    0.1200
     29 H57          -5.003675    1.151672    1.626404 H        1 SUBUNIT    0.1200
     30 C59           2.969033   -3.183095    1.583824 C.ar     1 SUBUNIT   -0.0398
     31 C60           3.105480   -3.612210    2.901000 C.ar     1 SUBUNIT    0.0408
     32 C61           2.367161   -4.695933    3.363743 C.ar     1 SUBUNIT   -0.0435
     33 C62           1.485301   -5.350115    2.512504 C.ar     1 SUBUNIT   -0.0605
     34 C63           1.341186   -4.915374    1.201093 C.ar     1 SUBUNIT   -0.0584
     35 H70           3.506294   -2.408477    1.250182 H        1 SUBUNIT    0.0641
     36 Cl72          4.189041   -2.797463    3.971266 Cl       1 SUBUNIT   -0.0843
     37 H74           2.470961   -5.004430    4.309288 H        1 SUBUNIT    0.0638
     38 H76           0.955938   -6.131546    2.842872 H        1 SUBUNIT    0.0623
     39 H78           0.701010   -5.381127    0.590152 H        1 SUBUNIT    0.0626
@<TRIPOS>BOND
     1    1    2 1
     2    2    3 1
     3    3    4 1
     4    4    5 1
     5    5    6 1
     6    6    1 1
     7    3    7 1
     8    7    8 1
     9    8    9 1
    10    1   10 1
    11    6   11 1
    12    1   12 1
    13    2   13 1
    14    2   14 1
    15    3   15 1
    16    4   16 1
    17    4   17 1
    18    5   18 1
    19    8   19 2
    20   10   20 1
    21    6   21 1
    22    9   22 1
    23    9   23 1
    24    9   24 1
    25   20   25 1
    26   20   26 1
    27   20   27 1
    28   11   28 1
    29   11   29 1
    30   30   31 ar
    31   31   32 ar
    32   32   33 ar
    33   33   34 ar
    34   22   30 ar
    35   22   34 ar
    36   30   35 1
    37   31   36 1
    38   32   37 1
    39   33   38 1
    40   34   39 1
@<SCITEGIC>ATOM_PROPERTY
Formal Charge
SciTegic.value.StringValue
1 0
2 0
3 0
4 0
5 0
6 0
7 0
8 0
9 0
10 0
11 0
12 0
13 0
14 0
15 0
16 0
17 0
18 0
19 0
20 0
21 0
22 0
23 0
24 0
25 0
26 0
27 0
28 0
29 0
30 0
31 0
32 0
33 0
34 0
35 0
36 0
37 0
38 0
39 0

@<SCITEGIC>ATOM_PROPERTY
pdb_tempFactor
SciTegic.value.DoubleValue
1 0.00
2 0.00
3 0.00
4 0.00
5 0.00
6 0.00
7 0.00
8 0.00
9 0.00
10 0.00
11 0.00
12 0.00
13 0.00
14 0.00
15 0.00
16 0.00
17 0.00
18 0.00
19 0.00
20 0.00
21 0.00
22 0.00
23 0.00
24 0.00
25 0.00
26 0.00
27 0.00
28 0.00
29 0.00
30 0.00
31 0.00
32 0.00
33 0.00
34 0.00
35 0.00
36 0.00
37 0.00
38 0.00
39 0.00

@<SCITEGIC>ATOM_PROPERTY
pdb_occupancy
SciTegic.value.DoubleValue
1 1.00
2 1.00
3 1.00
4 1.00
5 1.00
6 1.00
7 1.00
8 1.00
9 1.00
10 1.00
11 1.00
12 1.00
13 1.00
14 1.00
15 1.00
16 1.00
17 1.00
18 1.00
19 1.00
20 1.00
21 1.00
22 1.00
23 1.00
24 1.00
25 1.00
26 1.00
27 1.00
28 1.00
29 1.00
30 1.00
31 1.00
32 1.00
33 1.00
34 1.00
35 1.00
36 1.00
37 1.00
38 1.00
39 1.00

#	copyright 2023 drugdesign.org
#	Creation time:	2024-01-11T10:58:41Z

@<SCITEGIC>ROOT_PROPERTY
Ligand:MaximumNumberOfAtoms
SciTegic.value.IntegerValue
100

@<SCITEGIC>ROOT_PROPERTY
Ligand:HydrogenAtomsCountTowardsMaximum
SciTegic.value.BooleanValue
FALSE

@<TRIPOS>MOLECULE
Molecule
   39    40     0 0 0
SMALL
USER_CHARGES


@<TRIPOS>ATOM
      1 C1           -1.959192    1.245687    0.290840 C.3      1 SUBUNIT    0.0879
      2 C2           -0.686243    0.406159    0.477145 C.3      1 SUBUNIT    0.0045
      3 C3           -0.930840   -1.019026   -0.029601 C.3      1 SUBUNIT    0.0823
      4 C4           -2.126568   -1.618919    0.753614 C.3      1 SUBUNIT    0.0238
      5 N5           -3.334405   -0.782158    0.568934 N.3      1 SUBUNIT   -0.2973
      6 C6           -3.099414    0.586805    1.084884 C.3      1 SUBUNIT    0.0819
      7 O13           0.258255   -1.775503    0.224844 O.3      1 SUBUNIT   -0.3109
      8 C15           0.440266   -2.856893   -0.640243 C.2      1 SUBUNIT    0.2656
      9 C17           1.733018   -3.619931   -0.558667 C.3      1 SUBUNIT    0.0589
     10 O19          -1.741449    2.597142    0.751573 O.3      1 SUBUNIT   -0.3783
     11 N21          -4.295425    1.413683    0.924701 N.3      1 SUBUNIT   -0.3137
     12 H23          -2.235263    1.278549   -0.775138 H        1 SUBUNIT    0.0635
     13 H25           0.063186    0.819101   -0.040384 H        1 SUBUNIT    0.0322
     14 H27          -0.445828    0.377461    1.447391 H        1 SUBUNIT    0.0322
     15 H29          -1.149810   -0.991906   -1.109711 H        1 SUBUNIT    0.0625
     16 H31          -2.310804   -2.542517    0.417423 H        1 SUBUNIT    0.0456
     17 H33          -1.897625   -1.657226    1.726299 H        1 SUBUNIT    0.0456
     18 H35          -3.573389   -0.739920   -0.432406 H        1 SUBUNIT    0.1239
     19 O43          -0.412410   -3.147396   -1.485948 O.2      1 SUBUNIT   -0.2662
     20 C39          -0.537650    2.726289    1.531011 C.3      1 SUBUNIT    0.0360
     21 H41          -2.844067    0.526094    2.151464 H        1 SUBUNIT    0.0661
     22 C43           2.071281   -3.797539    0.899974 C.ar     1 SUBUNIT   -0.0366
     23 H45           1.628620   -4.513671   -0.994933 H        1 SUBUNIT    0.0423
     24 H47           2.459761   -3.107843   -1.016500 H        1 SUBUNIT    0.0423
     25 H49          -0.431143    3.675843    1.825834 H        1 SUBUNIT    0.0530
     26 H51           0.249978    2.459964    0.975342 H        1 SUBUNIT    0.0530
     27 H53          -0.594590    2.132876    2.333927 H        1 SUBUNIT    0.0530
     28 H55          -4.015093    2.405365    0.812834 H        1 SUBUNIT    0.1200
     29 H57          -4.910609    1.309308    1.745255 H        1 SUBUNIT    0.1200
     30 C59           3.073201   -3.045884    1.504948 C.ar     1 SUBUNIT   -0.0398
     31 C60           3.357070   -3.232241    2.854911 C.ar     1 SUBUNIT    0.0408
     32 C61           2.650015   -4.173530    3.595012 C.ar     1 SUBUNIT   -0.0435
     33 C62           1.652456   -4.927096    2.988999 C.ar     1 SUBUNIT   -0.0605
     34 C63           1.361845   -4.733767    1.644478 C.ar     1 SUBUNIT   -0.0584
     35 H70           3.587689   -2.374090    0.972036 H        1 SUBUNIT    0.0641
     36 Cl72          4.586077   -2.291112    3.621203 Cl       1 SUBUNIT   -0.0843
     37 H74           2.859584   -4.308051    4.563509 H        1 SUBUNIT    0.0638
     38 H76           1.145209   -5.606581    3.519095 H        1 SUBUNIT    0.0623
     39 H78           0.638795   -5.270546    1.209661 H        1 SUBUNIT    0.0626
@<TRIPOS>BOND
     1    1    2 1
     2    2    3 1
     3    3    4 1
     4    4    5 1
     5    5    6 1
     6    6    1 1
     7    3    7 1
     8    7    8 1
     9    8    9 1
    10    1   10 1
    11    6   11 1
    12    1   12 1
    13    2   13 1
    14    2   14 1
    15    3   15 1
    16    4   16 1
    17    4   17 1
    18    5   18 1
    19    8   19 2
    20   10   20 1
    21    6   21 1
    22    9   22 1
    23    9   23 1
    24    9   24 1
    25   20   25 1
    26   20   26 1
    27   20   27 1
    28   11   28 1
    29   11   29 1
    30   30   31 ar
    31   31   32 ar
    32   32   33 ar
    33   33   34 ar
    34   22   30 ar
    35   22   34 ar
    36   30   35 1
    37   31   36 1
    38   32   37 1
    39   33   38 1
    40   34   39 1
@<SCITEGIC>ATOM_PROPERTY
Formal Charge
SciTegic.value.StringValue
1 0
2 0
3 0
4 0
5 0
6 0
7 0
8 0
9 0
10 0
11 0
12 0
13 0
14 0
15 0
16 0
17 0
18 0
19 0
20 0
21 0
22 0
23 0
24 0
25 0
26 0
27 0
28 0
29 0
30 0
31 0
32 0
33 0
34 0
35 0
36 0
37 0
38 0
39 0

@<SCITEGIC>ATOM_PROPERTY
pdb_tempFactor
SciTegic.value.DoubleValue
1 0.00
2 0.00
3 0.00
4 0.00
5 0.00
6 0.00
7 0.00
8 0.00
9 0.00
10 0.00
11 0.00
12 0.00
13 0.00
14 0.00
15 0.00
16 0.00
17 0.00
18 0.00
19 0.00
20 0.00
21 0.00
22 0.00
23 0.00
24 0.00
25 0.00
26 0.00
27 0.00
28 0.00
29 0.00
30 0.00
31 0.00
32 0.00
33 0.00
34 0.00
35 0.00
36 0.00
37 0.00
38 0.00
39 0.00

@<SCITEGIC>ATOM_PROPERTY
pdb_occupancy
SciTegic.value.DoubleValue
1 1.00
2 1.00
3 1.00
4 1.00
5 1.00
6 1.00
7 1.00
8 1.00
9 1.00
10 1.00
11 1.00
12 1.00
13 1.00
14 1.00
15 1.00
16 1.00
17 1.00
18 1.00
19 1.00
20 1.00
21 1.00
22 1.00
23 1.00
24 1.00
25 1.00
26 1.00
27 1.00
28 1.00
29 1.00
30 1.00
31 1.00
32 1.00
33 1.00
34 1.00
35 1.00
36 1.00
37 1.00
38 1.00
39 1.00

#	copyright 2023 drugdesign.org
#	Creation time:	2024-01-11T10:58:41Z

@<SCITEGIC>ROOT_PROPERTY
Ligand:MaximumNumberOfAtoms
SciTegic.value.IntegerValue
100

@<SCITEGIC>ROOT_PROPERTY
Ligand:HydrogenAtomsCountTowardsMaximum
SciTegic.value.BooleanValue
FALSE

@<TRIPOS>MOLECULE
Molecule
   39    40     0 0 0
SMALL
USER_CHARGES


@<TRIPOS>ATOM
      1 C1           -1.959192    1.245687    0.290840 C.3      1 SUBUNIT    0.0879
      2 C2           -0.686243    0.406159    0.477145 C.3      1 SUBUNIT    0.0045
      3 C3           -0.930840   -1.019026   -0.029601 C.3      1 SUBUNIT    0.0823
      4 C4           -2.126568   -1.618919    0.753614 C.3      1 SUBUNIT    0.0238
      5 N5           -3.334405   -0.782158    0.568934 N.3      1 SUBUNIT   -0.2973
      6 C6           -3.099414    0.586805    1.084884 C.3      1 SUBUNIT    0.0819
      7 O13           0.258255   -1.775503    0.224844 O.3      1 SUBUNIT   -0.3109
      8 C15           0.440266   -2.856893   -0.640243 C.2      1 SUBUNIT    0.2656
      9 C17           1.777276   -3.011406   -1.310032 C.3      1 SUBUNIT    0.0589
     10 O19          -1.741449    2.597142    0.751573 O.3      1 SUBUNIT   -0.3783
     11 N21          -4.295425    1.413683    0.924701 N.3      1 SUBUNIT   -0.3137
     12 H23          -2.235263    1.278549   -0.775138 H        1 SUBUNIT    0.0635
     13 H25           0.063186    0.819101   -0.040384 H        1 SUBUNIT    0.0322
     14 H27          -0.445828    0.377461    1.447391 H        1 SUBUNIT    0.0322
     15 H29          -1.149810   -0.991906   -1.109711 H        1 SUBUNIT    0.0625
     16 H31          -2.310804   -2.542517    0.417423 H        1 SUBUNIT    0.0456
     17 H33          -1.897625   -1.657226    1.726299 H        1 SUBUNIT    0.0456
     18 H35          -3.573389   -0.739920   -0.432406 H        1 SUBUNIT    0.1239
     19 O43          -0.485785   -3.635356   -0.891417 O.2      1 SUBUNIT   -0.2662
     20 C39          -0.389572    3.042436    0.533683 C.3      1 SUBUNIT    0.0360
     21 H41          -2.844067    0.526094    2.151464 H        1 SUBUNIT    0.0661
     22 C43           2.842640   -2.721195   -0.283204 C.ar     1 SUBUNIT   -0.0366
     23 H45           1.880288   -3.945268   -1.652506 H        1 SUBUNIT    0.0423
     24 H47           1.853261   -2.366644   -2.070630 H        1 SUBUNIT    0.0423
     25 H49          -0.288883    3.979568    0.867693 H        1 SUBUNIT    0.0530
     26 H51          -0.182113    3.013514   -0.444162 H        1 SUBUNIT    0.0530
     27 H53           0.242459    2.443912    1.025984 H        1 SUBUNIT    0.0530
     28 H55          -4.075728    2.220708    0.312347 H        1 SUBUNIT    0.1200
     29 H57          -4.622716    1.744924    1.844382 H        1 SUBUNIT    0.1200
     30 C59           3.780360   -1.713153   -0.481587 C.ar     1 SUBUNIT   -0.0398
     31 C60           4.748011   -1.468955    0.488840 C.ar     1 SUBUNIT    0.0408
     32 C61           4.785336   -2.235998    1.648131 C.ar     1 SUBUNIT   -0.0435
     33 C62           3.851162   -3.245631    1.843574 C.ar     1 SUBUNIT   -0.0605
     34 C63           2.878946   -3.482450    0.880102 C.ar     1 SUBUNIT   -0.0584
     35 H70           3.759437   -1.165885   -1.318283 H        1 SUBUNIT    0.0641
     36 Cl72          5.905658   -0.207333    0.261799 Cl       1 SUBUNIT   -0.0843
     37 H74           5.484625   -2.060879    2.341187 H        1 SUBUNIT    0.0638
     38 H76           3.878582   -3.800149    2.675294 H        1 SUBUNIT    0.0623
     39 H78           2.201671   -4.204028    1.023716 H        1 SUBUNIT    0.0626
@<TRIPOS>BOND
     1    1    2 1
     2    2    3 1
     3    3    4 1
     4    4    5 1
     5    5    6 1
     6    6    1 1
     7    3    7 1
     8    7    8 1
     9    8    9 1
    10    1   10 1
    11    6   11 1
    12    1   12 1
    13    2   13 1
    14    2   14 1
    15    3   15 1
    16    4   16 1
    17    4   17 1
    18    5   18 1
    19    8   19 2
    20   10   20 1
    21    6   21 1
    22    9   22 1
    23    9   23 1
    24    9   24 1
    25   20   25 1
    26   20   26 1
    27   20   27 1
    28   11   28 1
    29   11   29 1
    30   30   31 ar
    31   31   32 ar
    32   32   33 ar
    33   33   34 ar
    34   22   30 ar
    35   22   34 ar
    36   30   35 1
    37   31   36 1
    38   32   37 1
    39   33   38 1
    40   34   39 1
@<SCITEGIC>ATOM_PROPERTY
Formal Charge
SciTegic.value.StringValue
1 0
2 0
3 0
4 0
5 0
6 0
7 0
8 0
9 0
10 0
11 0
12 0
13 0
14 0
15 0
16 0
17 0
18 0
19 0
20 0
21 0
22 0
23 0
24 0
25 0
26 0
27 0
28 0
29 0
30 0
31 0
32 0
33 0
34 0
35 0
36 0
37 0
38 0
39 0

@<SCITEGIC>ATOM_PROPERTY
pdb_tempFactor
SciTegic.value.DoubleValue
1 0.00
2 0.00
3 0.00
4 0.00
5 0.00
6 0.00
7 0.00
8 0.00
9 0.00
10 0.00
11 0.00
12 0.00
13 0.00
14 0.00
15 0.00
16 0.00
17 0.00
18 0.00
19 0.00
20 0.00
21 0.00
22 0.00
23 0.00
24 0.00
25 0.00
26 0.00
27 0.00
28 0.00
29 0.00
30 0.00
31 0.00
32 0.00
33 0.00
34 0.00
35 0.00
36 0.00
37 0.00
38 0.00
39 0.00

@<SCITEGIC>ATOM_PROPERTY
pdb_occupancy
SciTegic.value.DoubleValue
1 1.00
2 1.00
3 1.00
4 1.00
5 1.00
6 1.00
7 1.00
8 1.00
9 1.00
10 1.00
11 1.00
12 1.00
13 1.00
14 1.00
15 1.00
16 1.00
17 1.00
18 1.00
19 1.00
20 1.00
21 1.00
22 1.00
23 1.00
24 1.00
25 1.00
26 1.00
27 1.00
28 1.00
29 1.00
30 1.00
31 1.00
32 1.00
33 1.00
34 1.00
35 1.00
36 1.00
37 1.00
38 1.00
39 1.00

#	copyright 2023 drugdesign.org
#	Creation time:	2024-01-11T10:58:41Z

@<SCITEGIC>ROOT_PROPERTY
Ligand:MaximumNumberOfAtoms
SciTegic.value.IntegerValue
100

@<SCITEGIC>ROOT_PROPERTY
Ligand:HydrogenAtomsCountTowardsMaximum
SciTegic.value.BooleanValue
FALSE

@<TRIPOS>MOLECULE
Molecule
   39    40     0 0 0
SMALL
USER_CHARGES


@<TRIPOS>ATOM
      1 C1           -1.959192    1.245687    0.290840 C.3      1 SUBUNIT    0.0879
      2 C2           -0.686243    0.406159    0.477145 C.3      1 SUBUNIT    0.0045
      3 C3           -0.930840   -1.019026   -0.029601 C.3      1 SUBUNIT    0.0823
      4 C4           -2.126568   -1.618919    0.753614 C.3      1 SUBUNIT    0.0238
      5 N5           -3.334405   -0.782158    0.568934 N.3      1 SUBUNIT   -0.2973
      6 C6           -3.099414    0.586805    1.084884 C.3      1 SUBUNIT    0.0819
      7 O13           0.258255   -1.775503    0.224844 O.3      1 SUBUNIT   -0.3109
      8 C15           0.202189   -3.094019   -0.232629 C.2      1 SUBUNIT    0.2656
      9 C17           1.497837   -3.799400   -0.522155 C.3      1 SUBUNIT    0.0589
     10 O19          -1.741449    2.597142    0.751573 O.3      1 SUBUNIT   -0.3783
     11 N21          -4.295425    1.413683    0.924701 N.3      1 SUBUNIT   -0.3137
     12 H23          -2.235263    1.278549   -0.775138 H        1 SUBUNIT    0.0635
     13 H25           0.063186    0.819101   -0.040384 H        1 SUBUNIT    0.0322
     14 H27          -0.445828    0.377461    1.447391 H        1 SUBUNIT    0.0322
     15 H29          -1.149810   -0.991906   -1.109711 H        1 SUBUNIT    0.0625
     16 H31          -2.310804   -2.542517    0.417423 H        1 SUBUNIT    0.0456
     17 H33          -1.897625   -1.657226    1.726299 H        1 SUBUNIT    0.0456
     18 H35          -3.573389   -0.739920   -0.432406 H        1 SUBUNIT    0.1239
     19 O43          -0.880747   -3.649568   -0.445411 O.2      1 SUBUNIT   -0.2662
     20 C39          -0.780263    3.305474   -0.053239 C.3      1 SUBUNIT    0.0360
     21 H41          -2.844067    0.526094    2.151464 H        1 SUBUNIT    0.0661
     22 C43           2.463972   -3.459812    0.584582 C.ar     1 SUBUNIT   -0.0366
     23 H45           1.347948   -4.787665   -0.551537 H        1 SUBUNIT    0.0423
     24 H47           1.864221   -3.491097   -1.400056 H        1 SUBUNIT    0.0423
     25 H49          -0.664223    4.232270    0.303832 H        1 SUBUNIT    0.0530
     26 H51          -1.104849    3.351004   -0.998028 H        1 SUBUNIT    0.0530
     27 H53           0.096749    2.825766   -0.025236 H        1 SUBUNIT    0.0530
     28 H55          -4.262457    1.891117    0.005188 H        1 SUBUNIT    0.1200
     29 H57          -4.349454    2.109062    1.683768 H        1 SUBUNIT    0.1200
     30 C59           3.754957   -3.022952    0.306498 C.ar     1 SUBUNIT   -0.0398
     31 C60           4.620075   -2.713915    1.352336 C.ar     1 SUBUNIT    0.0408
     32 C61           4.200579   -2.851092    2.671012 C.ar     1 SUBUNIT   -0.0435
     33 C62           2.912440   -3.291764    2.948047 C.ar     1 SUBUNIT   -0.0605
     34 C63           2.045547   -3.590055    1.904455 C.ar     1 SUBUNIT   -0.0584
     35 H70           4.060466   -2.931227   -0.641264 H        1 SUBUNIT    0.0641
     36 Cl72          6.219076   -2.152410    1.018734 Cl       1 SUBUNIT   -0.0843
     37 H74           4.826122   -2.632537    3.419964 H        1 SUBUNIT    0.0638
     38 H76           2.610278   -3.393897    3.895817 H        1 SUBUNIT    0.0623
     39 H78           1.115821   -3.900037    2.103256 H        1 SUBUNIT    0.0626
@<TRIPOS>BOND
     1    1    2 1
     2    2    3 1
     3    3    4 1
     4    4    5 1
     5    5    6 1
     6    6    1 1
     7    3    7 1
     8    7    8 1
     9    8    9 1
    10    1   10 1
    11    6   11 1
    12    1   12 1
    13    2   13 1
    14    2   14 1
    15    3   15 1
    16    4   16 1
    17    4   17 1
    18    5   18 1
    19    8   19 2
    20   10   20 1
    21    6   21 1
    22    9   22 1
    23    9   23 1
    24    9   24 1
    25   20   25 1
    26   20   26 1
    27   20   27 1
    28   11   28 1
    29   11   29 1
    30   30   31 ar
    31   31   32 ar
    32   32   33 ar
    33   33   34 ar
    34   22   30 ar
    35   22   34 ar
    36   30   35 1
    37   31   36 1
    38   32   37 1
    39   33   38 1
    40   34   39 1
@<SCITEGIC>ATOM_PROPERTY
Formal Charge
SciTegic.value.StringValue
1 0
2 0
3 0
4 0
5 0
6 0
7 0
8 0
9 0
10 0
11 0
12 0
13 0
14 0
15 0
16 0
17 0
18 0
19 0
20 0
21 0
22 0
23 0
24 0
25 0
26 0
27 0
28 0
29 0
30 0
31 0
32 0
33 0
34 0
35 0
36 0
37 0
38 0
39 0

@<SCITEGIC>ATOM_PROPERTY
pdb_tempFactor
SciTegic.value.DoubleValue
1 0.00
2 0.00
3 0.00
4 0.00
5 0.00
6 0.00
7 0.00
8 0.00
9 0.00
10 0.00
11 0.00
12 0.00
13 0.00
14 0.00
15 0.00
16 0.00
17 0.00
18 0.00
19 0.00
20 0.00
21 0.00
22 0.00
23 0.00
24 0.00
25 0.00
26 0.00
27 0.00
28 0.00
29 0.00
30 0.00
31 0.00
32 0.00
33 0.00
34 0.00
35 0.00
36 0.00
37 0.00
38 0.00
39 0.00

@<SCITEGIC>ATOM_PROPERTY
pdb_occupancy
SciTegic.value.DoubleValue
1 1.00
2 1.00
3 1.00
4 1.00
5 1.00
6 1.00
7 1.00
8 1.00
9 1.00
10 1.00
11 1.00
12 1.00
13 1.00
14 1.00
15 1.00
16 1.00
17 1.00
18 1.00
19 1.00
20 1.00
21 1.00
22 1.00
23 1.00
24 1.00
25 1.00
26 1.00
27 1.00
28 1.00
29 1.00
30 1.00
31 1.00
32 1.00
33 1.00
34 1.00
35 1.00
36 1.00
37 1.00
38 1.00
39 1.00

#	copyright 2023 drugdesign.org
#	Creation time:	2024-01-11T10:58:41Z

@<SCITEGIC>ROOT_PROPERTY
Ligand:MaximumNumberOfAtoms
SciTegic.value.IntegerValue
100

@<SCITEGIC>ROOT_PROPERTY
Ligand:HydrogenAtomsCountTowardsMaximum
SciTegic.value.BooleanValue
FALSE

@<TRIPOS>MOLECULE
Molecule
   39    40     0 0 0
SMALL
USER_CHARGES


@<TRIPOS>ATOM
      1 C1           -1.959192    1.245687    0.290840 C.3      1 SUBUNIT    0.0879
      2 C2           -0.686243    0.406159    0.477145 C.3      1 SUBUNIT    0.0045
      3 C3           -0.930840   -1.019026   -0.029601 C.3      1 SUBUNIT    0.0823
      4 C4           -2.126568   -1.618919    0.753614 C.3      1 SUBUNIT    0.0238
      5 N5           -3.334405   -0.782158    0.568934 N.3      1 SUBUNIT   -0.2973
      6 C6           -3.099414    0.586805    1.084884 C.3      1 SUBUNIT    0.0819
      7 O13           0.258255   -1.775503    0.224844 O.3      1 SUBUNIT   -0.3109
      8 C15           0.342697   -2.964286   -0.503560 C.2      1 SUBUNIT    0.2656
      9 C17           1.693410   -3.394063   -1.004514 C.3      1 SUBUNIT    0.0589
     10 O19          -1.741449    2.597142    0.751573 O.3      1 SUBUNIT   -0.3783
     11 N21          -4.295425    1.413683    0.924701 N.3      1 SUBUNIT   -0.3137
     12 H23          -2.235263    1.278549   -0.775138 H        1 SUBUNIT    0.0635
     13 H25           0.063186    0.819101   -0.040384 H        1 SUBUNIT    0.0322
     14 H27          -0.445828    0.377461    1.447391 H        1 SUBUNIT    0.0322
     15 H29          -1.149810   -0.991906   -1.109711 H        1 SUBUNIT    0.0625
     16 H31          -2.310804   -2.542517    0.417423 H        1 SUBUNIT    0.0456
     17 H33          -1.897625   -1.657226    1.726299 H        1 SUBUNIT    0.0456
     18 H35          -3.573389   -0.739920   -0.432406 H        1 SUBUNIT    0.1239
     19 O43          -0.669520   -3.618406   -0.775972 O.2      1 SUBUNIT   -0.2662
     20 C39          -0.780263    3.305474   -0.053239 C.3      1 SUBUNIT    0.0360
     21 H41          -2.844067    0.526094    2.151464 H        1 SUBUNIT    0.0661
     22 C43           2.692096   -3.151006    0.098730 C.ar     1 SUBUNIT   -0.0366
     23 H45           1.675711   -4.365946   -1.239307 H        1 SUBUNIT    0.0423
     24 H47           1.942331   -2.859947   -1.812449 H        1 SUBUNIT    0.0423
     25 H49          -0.664223    4.232270    0.303832 H        1 SUBUNIT    0.0530
     26 H51          -1.104849    3.351004   -0.998028 H        1 SUBUNIT    0.0530
     27 H53           0.096749    2.825766   -0.025236 H        1 SUBUNIT    0.0530
     28 H55          -4.488400    1.546829   -0.085035 H        1 SUBUNIT    0.1200
     29 H57          -4.158672    2.326782    1.383178 H        1 SUBUNIT    0.1200
     30 C59           4.014282   -2.824389   -0.184057 C.ar     1 SUBUNIT   -0.0398
     31 C60           4.909316   -2.602391    0.858700 C.ar     1 SUBUNIT    0.0408
     32 C61           4.487671   -2.716820    2.178861 C.ar     1 SUBUNIT   -0.0435
     33 C62           3.167984   -3.047467    2.460539 C.ar     1 SUBUNIT   -0.0605
     34 C63           2.272125   -3.258631    1.420149 C.ar     1 SUBUNIT   -0.0584
     35 H70           4.320727   -2.749334   -1.132982 H        1 SUBUNIT    0.0641
     36 Cl72          6.548794   -2.177627    0.519477 Cl       1 SUBUNIT   -0.0843
     37 H74           5.134375   -2.561103    2.925535 H        1 SUBUNIT    0.0638
     38 H76           2.863972   -3.133179    3.409345 H        1 SUBUNIT    0.0623
     39 H78           1.320321   -3.489220    1.622383 H        1 SUBUNIT    0.0626
@<TRIPOS>BOND
     1    1    2 1
     2    2    3 1
     3    3    4 1
     4    4    5 1
     5    5    6 1
     6    6    1 1
     7    3    7 1
     8    7    8 1
     9    8    9 1
    10    1   10 1
    11    6   11 1
    12    1   12 1
    13    2   13 1
    14    2   14 1
    15    3   15 1
    16    4   16 1
    17    4   17 1
    18    5   18 1
    19    8   19 2
    20   10   20 1
    21    6   21 1
    22    9   22 1
    23    9   23 1
    24    9   24 1
    25   20   25 1
    26   20   26 1
    27   20   27 1
    28   11   28 1
    29   11   29 1
    30   30   31 ar
    31   31   32 ar
    32   32   33 ar
    33   33   34 ar
    34   22   30 ar
    35   22   34 ar
    36   30   35 1
    37   31   36 1
    38   32   37 1
    39   33   38 1
    40   34   39 1
@<SCITEGIC>ATOM_PROPERTY
Formal Charge
SciTegic.value.StringValue
1 0
2 0
3 0
4 0
5 0
6 0
7 0
8 0
9 0
10 0
11 0
12 0
13 0
14 0
15 0
16 0
17 0
18 0
19 0
20 0
21 0
22 0
23 0
24 0
25 0
26 0
27 0
28 0
29 0
30 0
31 0
32 0
33 0
34 0
35 0
36 0
37 0
38 0
39 0

@<SCITEGIC>ATOM_PROPERTY
pdb_tempFactor
SciTegic.value.DoubleValue
1 0.00
2 0.00
3 0.00
4 0.00
5 0.00
6 0.00
7 0.00
8 0.00
9 0.00
10 0.00
11 0.00
12 0.00
13 0.00
14 0.00
15 0.00
16 0.00
17 0.00
18 0.00
19 0.00
20 0.00
21 0.00
22 0.00
23 0.00
24 0.00
25 0.00
26 0.00
27 0.00
28 0.00
29 0.00
30 0.00
31 0.00
32 0.00
33 0.00
34 0.00
35 0.00
36 0.00
37 0.00
38 0.00
39 0.00

@<SCITEGIC>ATOM_PROPERTY
pdb_occupancy
SciTegic.value.DoubleValue
1 1.00
2 1.00
3 1.00
4 1.00
5 1.00
6 1.00
7 1.00
8 1.00
9 1.00
10 1.00
11 1.00
12 1.00
13 1.00
14 1.00
15 1.00
16 1.00
17 1.00
18 1.00
19 1.00
20 1.00
21 1.00
22 1.00
23 1.00
24 1.00
25 1.00
26 1.00
27 1.00
28 1.00
29 1.00
30 1.00
31 1.00
32 1.00
33 1.00
34 1.00
35 1.00
36 1.00
37 1.00
38 1.00
39 1.00

#	copyright 2023 drugdesign.org
#	Creation time:	2024-01-11T10:58:41Z

@<SCITEGIC>ROOT_PROPERTY
Ligand:MaximumNumberOfAtoms
SciTegic.value.IntegerValue
100

@<SCITEGIC>ROOT_PROPERTY
Ligand:HydrogenAtomsCountTowardsMaximum
SciTegic.value.BooleanValue
FALSE

@<TRIPOS>MOLECULE
Molecule
   39    40     0 0 0
SMALL
USER_CHARGES


@<TRIPOS>ATOM
      1 C1           -1.959192    1.245687    0.290840 C.3      1 SUBUNIT    0.0879
      2 C2           -0.686243    0.406159    0.477145 C.3      1 SUBUNIT    0.0045
      3 C3           -0.930840   -1.019026   -0.029601 C.3      1 SUBUNIT    0.0823
      4 C4           -2.126568   -1.618919    0.753614 C.3      1 SUBUNIT    0.0238
      5 N5           -3.334405   -0.782158    0.568934 N.3      1 SUBUNIT   -0.2973
      6 C6           -3.099414    0.586805    1.084884 C.3      1 SUBUNIT    0.0819
      7 O13           0.258255   -1.775503    0.224844 O.3      1 SUBUNIT   -0.3109
      8 C15           0.210540   -3.087437   -0.252085 C.2      1 SUBUNIT    0.2656
      9 C17           1.330753   -3.561534   -1.135511 C.3      1 SUBUNIT    0.0589
     10 O19          -1.741449    2.597142    0.751573 O.3      1 SUBUNIT   -0.3783
     11 N21          -4.295425    1.413683    0.924701 N.3      1 SUBUNIT   -0.3137
     12 H23          -2.235263    1.278549   -0.775138 H        1 SUBUNIT    0.0635
     13 H25           0.063186    0.819101   -0.040384 H        1 SUBUNIT    0.0322
     14 H27          -0.445828    0.377461    1.447391 H        1 SUBUNIT    0.0322
     15 H29          -1.149810   -0.991906   -1.109711 H        1 SUBUNIT    0.0625
     16 H31          -2.310804   -2.542517    0.417423 H        1 SUBUNIT    0.0456
     17 H33          -1.897625   -1.657226    1.726299 H        1 SUBUNIT    0.0456
     18 H35          -3.573389   -0.739920   -0.432406 H        1 SUBUNIT    0.1239
     19 O43          -0.750197   -3.822642   -0.000845 O.2      1 SUBUNIT   -0.2662
     20 C39          -1.429404    3.502328   -0.323880 C.3      1 SUBUNIT    0.0360
     21 H41          -2.844067    0.526094    2.151464 H        1 SUBUNIT    0.0661
     22 C43           2.624330   -3.052371   -0.551550 C.ar     1 SUBUNIT   -0.0366
     23 H45           1.340978   -4.561044   -1.165042 H        1 SUBUNIT    0.0423
     24 H47           1.210119   -3.201465   -2.060605 H        1 SUBUNIT    0.0423
     25 H49          -1.287857    4.421390    0.043824 H        1 SUBUNIT    0.0530
     26 H51          -2.186411    3.518141   -0.977138 H        1 SUBUNIT    0.0530
     27 H53          -0.596928    3.196975   -0.786264 H        1 SUBUNIT    0.0530
     28 H55          -4.795266    1.131374    0.061569 H        1 SUBUNIT    0.1200
     29 H57          -4.033318    2.409330    0.873333 H        1 SUBUNIT    0.1200
     30 C59           3.710132   -2.742691   -1.363925 C.ar     1 SUBUNIT   -0.0398
     31 C60           4.888379   -2.270866   -0.792236 C.ar     1 SUBUNIT    0.0408
     32 C61           4.985109   -2.119233    0.586661 C.ar     1 SUBUNIT   -0.0435
     33 C62           3.901684   -2.432989    1.397826 C.ar     1 SUBUNIT   -0.0605
     34 C63           2.722287   -2.893764    0.826621 C.ar     1 SUBUNIT   -0.0584
     35 H70           3.644546   -2.858582   -2.355020 H        1 SUBUNIT    0.0641
     36 Cl72          6.236595   -1.865145   -1.792780 Cl       1 SUBUNIT   -0.0843
     37 H74           5.834552   -1.784328    0.994437 H        1 SUBUNIT    0.0638
     38 H76           3.970700   -2.327437    2.389843 H        1 SUBUNIT    0.0623
     39 H78           1.939652   -3.112551    1.409385 H        1 SUBUNIT    0.0626
@<TRIPOS>BOND
     1    1    2 1
     2    2    3 1
     3    3    4 1
     4    4    5 1
     5    5    6 1
     6    6    1 1
     7    3    7 1
     8    7    8 1
     9    8    9 1
    10    1   10 1
    11    6   11 1
    12    1   12 1
    13    2   13 1
    14    2   14 1
    15    3   15 1
    16    4   16 1
    17    4   17 1
    18    5   18 1
    19    8   19 2
    20   10   20 1
    21    6   21 1
    22    9   22 1
    23    9   23 1
    24    9   24 1
    25   20   25 1
    26   20   26 1
    27   20   27 1
    28   11   28 1
    29   11   29 1
    30   30   31 ar
    31   31   32 ar
    32   32   33 ar
    33   33   34 ar
    34   22   30 ar
    35   22   34 ar
    36   30   35 1
    37   31   36 1
    38   32   37 1
    39   33   38 1
    40   34   39 1
@<SCITEGIC>ATOM_PROPERTY
Formal Charge
SciTegic.value.StringValue
1 0
2 0
3 0
4 0
5 0
6 0
7 0
8 0
9 0
10 0
11 0
12 0
13 0
14 0
15 0
16 0
17 0
18 0
19 0
20 0
21 0
22 0
23 0
24 0
25 0
26 0
27 0
28 0
29 0
30 0
31 0
32 0
33 0
34 0
35 0
36 0
37 0
38 0
39 0

@<SCITEGIC>ATOM_PROPERTY
pdb_tempFactor
SciTegic.value.DoubleValue
1 0.00
2 0.00
3 0.00
4 0.00
5 0.00
6 0.00
7 0.00
8 0.00
9 0.00
10 0.00
11 0.00
12 0.00
13 0.00
14 0.00
15 0.00
16 0.00
17 0.00
18 0.00
19 0.00
20 0.00
21 0.00
22 0.00
23 0.00
24 0.00
25 0.00
26 0.00
27 0.00
28 0.00
29 0.00
30 0.00
31 0.00
32 0.00
33 0.00
34 0.00
35 0.00
36 0.00
37 0.00
38 0.00
39 0.00

@<SCITEGIC>ATOM_PROPERTY
pdb_occupancy
SciTegic.value.DoubleValue
1 1.00
2 1.00
3 1.00
4 1.00
5 1.00
6 1.00
7 1.00
8 1.00
9 1.00
10 1.00
11 1.00
12 1.00
13 1.00
14 1.00
15 1.00
16 1.00
17 1.00
18 1.00
19 1.00
20 1.00
21 1.00
22 1.00
23 1.00
24 1.00
25 1.00
26 1.00
27 1.00
28 1.00
29 1.00
30 1.00
31 1.00
32 1.00
33 1.00
34 1.00
35 1.00
36 1.00
37 1.00
38 1.00
39 1.00

