#	copyright 2023 drugdesign.org
#	Creation time:	2024-01-11T10:58:30Z

@<SCITEGIC>ROOT_PROPERTY
Ligand:MaximumNumberOfAtoms
SciTegic.value.IntegerValue
100

@<SCITEGIC>ROOT_PROPERTY
Ligand:HydrogenAtomsCountTowardsMaximum
SciTegic.value.BooleanValue
FALSE

@<TRIPOS>MOLECULE
viagra.mol
   63    66     0 0 0
SMALL
USER_CHARGES


@<TRIPOS>ATOM
      1 N1           -3.458000   -1.992100    0.130400 N.3      1 SUBUNIT   -0.3547
      2 C2           -4.886100   -1.743600    0.333300 C.3      1 SUBUNIT   -0.0113
      3 C3           -5.670300   -2.580100   -0.672900 C.3      1 SUBUNIT    0.0084
      4 N4           -5.272700   -2.187700   -2.032400 N.3      1 SUBUNIT   -0.3040
      5 C5           -3.834700   -2.409100   -2.234900 C.3      1 SUBUNIT    0.0084
      6 C6           -3.053200   -1.578900   -1.220300 C.3      1 SUBUNIT   -0.0113
      7 C7           -6.025000   -2.988200   -3.003600 C.3      1 SUBUNIT   -0.0133
      8 S8           -2.577500   -1.091900    1.285400 S.o2     1 SUBUNIT    1.4172
      9 O9           -3.089600   -1.490300    2.655600 O.2      1 SUBUNIT   -0.5684
     10 O10          -2.763700    0.400900    1.104600 O.2      1 SUBUNIT   -0.5684
     11 C11          -0.859800   -1.531600    1.237000 C.ar     1 SUBUNIT   -0.0406
     12 C12          -0.498900   -2.852000    0.999300 C.ar     1 SUBUNIT   -0.0690
     13 C13           0.840800   -3.216400    0.998300 C.ar     1 SUBUNIT   -0.0323
     14 C14           1.833800   -2.272800    1.254500 C.ar     1 SUBUNIT    0.0855
     15 C15           1.468400   -0.947800    1.494600 C.ar     1 SUBUNIT    0.0441
     16 C16           0.124600   -0.578600    1.476100 C.ar     1 SUBUNIT   -0.0582
     17 O17           3.216700   -2.630800    1.242400 O.3      1 SUBUNIT   -0.3456
     18 C18           3.481500   -4.026700    0.978800 C.3      1 SUBUNIT    0.0505
     19 C19           3.507800   -4.842300    2.297900 C.3      1 SUBUNIT   -0.0410
     20 C20           2.490300    0.083400    1.773600 C.2      1 SUBUNIT    0.1349
     21 N21           2.160400    1.318000    1.675200 N.2      1 SUBUNIT   -0.2261
     22 C22           3.126000    2.282700    1.901300 C.ar     1 SUBUNIT    0.1413
     23 C23           4.410000    2.023400    2.283200 C.ar     1 SUBUNIT    0.2213
     24 C24           4.848300    0.685800    2.468900 C.2      1 SUBUNIT    0.2893
     25 N25           3.868100   -0.313500    2.174300 N.am     1 SUBUNIT   -0.2623
     26 C26           3.059000    3.651200    1.774300 C.ar     1 SUBUNIT    0.1110
     27 N27           4.257200    4.154000    2.088700 N.ar     1 SUBUNIT   -0.0988
     28 N28           5.040200    3.187500    2.393900 N.ar     1 SUBUNIT    0.3937
     29 O29           5.997200    0.395500    2.831400 O.2      1 SUBUNIT   -0.2674
     30 C30           6.413000    3.347700    2.781200 C.3      1 SUBUNIT    0.0869
     31 C31           1.849500    4.415700    1.328800 C.3      1 SUBUNIT   -0.0047
     32 C32           1.960168    5.877539    1.811870 C.3      1 SUBUNIT   -0.0504
     33 C33           1.945068    5.904220    3.364556 C.3      1 SUBUNIT   -0.0650
     34 H34          -5.145000   -2.004400    1.263300 H        1 SUBUNIT    0.0419
     35 H35          -5.083100   -0.773500    0.191600 H        1 SUBUNIT    0.0419
     36 H36          -5.469800   -3.549600   -0.531500 H        1 SUBUNIT    0.0443
     37 H37          -6.649800   -2.420500   -0.550600 H        1 SUBUNIT    0.0443
     38 H38          -3.624100   -3.378400   -2.107400 H        1 SUBUNIT    0.0443
     39 H39          -3.580600   -2.131400   -3.161400 H        1 SUBUNIT    0.0443
     40 H40          -3.255800   -0.608400   -1.351100 H        1 SUBUNIT    0.0419
     41 H41          -2.072700   -1.734400   -1.340900 H        1 SUBUNIT    0.0419
     42 H42          -5.758400   -2.725200   -3.930800 H        1 SUBUNIT    0.0394
     43 H43          -7.004500   -2.828000   -2.880800 H        1 SUBUNIT    0.0394
     44 H44          -5.826000   -3.957900   -2.862400 H        1 SUBUNIT    0.0394
     45 H45          -1.204300   -3.540100    0.828900 H        1 SUBUNIT    0.0610
     46 H46           1.095700   -4.165300    0.811900 H        1 SUBUNIT    0.0650
     47 H47          -0.132600    0.374600    1.635200 H        1 SUBUNIT    0.0618
     48 H48           2.764400   -4.389500    0.383700 H        1 SUBUNIT    0.0569
     49 H49           4.367800   -4.111600    0.523500 H        1 SUBUNIT    0.0569
     50 H50           3.692300   -5.803400    2.092500 H        1 SUBUNIT    0.0254
     51 H51           2.622600   -4.763900    2.756500 H        1 SUBUNIT    0.0254
     52 H52           4.225600   -4.486100    2.896300 H        1 SUBUNIT    0.0254
     53 H53           4.108200   -1.310200    2.266000 H        1 SUBUNIT    0.1577
     54 H54           6.646300    4.320000    2.788900 H        1 SUBUNIT    0.0707
     55 H55           7.001600    2.869300    2.129500 H        1 SUBUNIT    0.0707
     56 H56           6.548800    2.965600    3.695300 H        1 SUBUNIT    0.0707
     57 H57           1.792702    4.397727    0.330604 H        1 SUBUNIT    0.0334
     58 H58           1.028674    3.997269    1.717565 H        1 SUBUNIT    0.0334
     59 H59           2.814826    6.275880    1.478860 H        1 SUBUNIT    0.0268
     60 H60           1.186762    6.405282    1.460746 H        1 SUBUNIT    0.0268
     61 H61           2.072059    6.843361    3.683546 H        1 SUBUNIT    0.0230
     62 H62           2.685241    5.330598    3.715478 H        1 SUBUNIT    0.0230
     63 H63           1.068183    5.555863    3.695857 H        1 SUBUNIT    0.0230
@<TRIPOS>BOND
     1    1    2 1
     2    1    6 1
     3    1    8 1
     4    2    3 1
     5    2   34 1
     6    2   35 1
     7    3    4 1
     8    3   36 1
     9    3   37 1
    10    4    5 1
    11    4    7 1
    12    5    6 1
    13    5   38 1
    14    5   39 1
    15    6   40 1
    16    6   41 1
    17    7   42 1
    18    7   43 1
    19    7   44 1
    20    8    9 2
    21    8   10 2
    22    8   11 1
    23   11   12 ar
    24   11   16 ar
    25   12   13 ar
    26   12   45 1
    27   13   14 ar
    28   13   46 1
    29   14   15 ar
    30   14   17 1
    31   15   16 ar
    32   15   20 1
    33   16   47 1
    34   17   18 1
    35   18   19 1
    36   18   48 1
    37   18   49 1
    38   19   50 1
    39   19   51 1
    40   19   52 1
    41   20   21 2
    42   20   25 1
    43   21   22 1
    44   22   23 ar
    45   22   26 ar
    46   23   24 1
    47   23   28 ar
    48   24   25 1
    49   24   29 2
    50   25   53 1
    51   26   27 ar
    52   26   31 1
    53   27   28 ar
    54   28   30 1
    55   30   54 1
    56   30   55 1
    57   30   56 1
    58   31   32 1
    59   31   57 1
    60   31   58 1
    61   32   33 1
    62   32   59 1
    63   32   60 1
    64   33   61 1
    65   33   62 1
    66   33   63 1
@<SCITEGIC>ATOM_PROPERTY
Formal Charge
SciTegic.value.StringValue
1 0
2 0
3 0
4 0
5 0
6 0
7 0
8 0
9 0
10 0
11 0
12 0
13 0
14 0
15 0
16 0
17 0
18 0
19 0
20 0
21 0
22 0
23 0
24 0
25 0
26 0
27 0
28 0
29 0
30 0
31 0
32 0
33 0
34 0
35 0
36 0
37 0
38 0
39 0
40 0
41 0
42 0
43 0
44 0
45 0
46 0
47 0
48 0
49 0
50 0
51 0
52 0
53 0
54 0
55 0
56 0
57 0
58 0
59 0
60 0
61 0
62 0
63 0

@<SCITEGIC>ATOM_PROPERTY
pdb_tempFactor
SciTegic.value.DoubleValue
1 0.00
2 0.00
3 0.00
4 0.00
5 0.00
6 0.00
7 0.00
8 0.00
9 0.00
10 0.00
11 0.00
12 0.00
13 0.00
14 0.00
15 0.00
16 0.00
17 0.00
18 0.00
19 0.00
20 0.00
21 0.00
22 0.00
23 0.00
24 0.00
25 0.00
26 0.00
27 0.00
28 0.00
29 0.00
30 0.00
31 0.00
32 0.00
33 0.00
34 0.00
35 0.00
36 0.00
37 0.00
38 0.00
39 0.00
40 0.00
41 0.00
42 0.00
43 0.00
44 0.00
45 0.00
46 0.00
47 0.00
48 0.00
49 0.00
50 0.00
51 0.00
52 0.00
53 0.00
54 0.00
55 0.00
56 0.00
57 0.00
58 0.00
59 0.00
60 0.00
61 0.00
62 0.00
63 0.00

@<SCITEGIC>ATOM_PROPERTY
pdb_occupancy
SciTegic.value.DoubleValue
1 1.00
2 1.00
3 1.00
4 1.00
5 1.00
6 1.00
7 1.00
8 1.00
9 1.00
10 1.00
11 1.00
12 1.00
13 1.00
14 1.00
15 1.00
16 1.00
17 1.00
18 1.00
19 1.00
20 1.00
21 1.00
22 1.00
23 1.00
24 1.00
25 1.00
26 1.00
27 1.00
28 1.00
29 1.00
30 1.00
31 1.00
32 1.00
33 1.00
34 1.00
35 1.00
36 1.00
37 1.00
38 1.00
39 1.00
40 1.00
41 1.00
42 1.00
43 1.00
44 1.00
45 1.00
46 1.00
47 1.00
48 1.00
49 1.00
50 1.00
51 1.00
52 1.00
53 1.00
54 1.00
55 1.00
56 1.00
57 1.00
58 1.00
59 1.00
60 1.00
61 1.00
62 1.00
63 1.00

#	copyright 2023 drugdesign.org
#	Creation time:	2024-01-11T10:58:30Z

@<SCITEGIC>ROOT_PROPERTY
Ligand:MaximumNumberOfAtoms
SciTegic.value.IntegerValue
100

@<SCITEGIC>ROOT_PROPERTY
Ligand:HydrogenAtomsCountTowardsMaximum
SciTegic.value.BooleanValue
FALSE

@<TRIPOS>MOLECULE
viagra.mol
   63     0     0 0 0
SMALL
USER_CHARGES


@<TRIPOS>ATOM
      1 N1           -3.458000   -1.992100    0.130400 N.3      1 SUBUNIT   -0.3547
      2 C2           -4.886100   -1.743600    0.333300 C.3      1 SUBUNIT   -0.0113
      3 C3           -5.670300   -2.580100   -0.672900 C.3      1 SUBUNIT    0.0084
      4 N4           -5.272700   -2.187700   -2.032400 N.3      1 SUBUNIT   -0.3040
      5 C5           -3.834700   -2.409100   -2.234900 C.3      1 SUBUNIT    0.0084
      6 C6           -3.053200   -1.578900   -1.220300 C.3      1 SUBUNIT   -0.0113
      7 C7           -6.025000   -2.988200   -3.003600 C.3      1 SUBUNIT   -0.0133
      8 S8           -2.577500   -1.091900    1.285400 S.3      1 SUBUNIT    1.4172
      9 O9           -3.089600   -1.490300    2.655600 O.3      1 SUBUNIT   -0.5684
     10 O10          -2.763700    0.400900    1.104600 O.3      1 SUBUNIT   -0.5684
     11 C11          -0.859800   -1.531600    1.237000 C.3      1 SUBUNIT   -0.0406
     12 C12          -0.498900   -2.852000    0.999300 C.3      1 SUBUNIT   -0.0690
     13 C13           0.840800   -3.216400    0.998300 C.3      1 SUBUNIT   -0.0323
     14 C14           1.833800   -2.272800    1.254500 C.3      1 SUBUNIT    0.0855
     15 C15           1.468400   -0.947800    1.494600 C.3      1 SUBUNIT    0.0441
     16 C16           0.124600   -0.578600    1.476100 C.3      1 SUBUNIT   -0.0582
     17 O17           3.216700   -2.630800    1.242400 O.3      1 SUBUNIT   -0.3456
     18 C18           3.481500   -4.026700    0.978800 C.3      1 SUBUNIT    0.0505
     19 C19           3.507800   -4.842300    2.297900 C.3      1 SUBUNIT   -0.0410
     20 C20           2.490300    0.083400    1.773600 C.3      1 SUBUNIT    0.1349
     21 N21           2.160400    1.318000    1.675200 N.3      1 SUBUNIT   -0.2261
     22 C22           3.126000    2.282700    1.901300 C.3      1 SUBUNIT    0.1413
     23 C23           4.410000    2.023400    2.283200 C.3      1 SUBUNIT    0.2213
     24 C24           4.848300    0.685800    2.468900 C.3      1 SUBUNIT    0.2893
     25 N25           3.868100   -0.313500    2.174300 N.3      1 SUBUNIT   -0.2623
     26 C26           3.059000    3.651200    1.774300 C.3      1 SUBUNIT    0.1110
     27 N27           4.257200    4.154000    2.088700 N.3      1 SUBUNIT   -0.0988
     28 N28           5.040200    3.187500    2.393900 N.3      1 SUBUNIT    0.3937
     29 O29           5.997200    0.395500    2.831400 O.3      1 SUBUNIT   -0.2674
     30 C30           6.413000    3.347700    2.781200 C.3      1 SUBUNIT    0.0869
     31 C31           1.849500    4.415700    1.328800 C.3      1 SUBUNIT   -0.0047
     32 C32           1.960168    5.877539    1.811870 C.3      1 SUBUNIT   -0.0504
     33 C33           1.945068    5.904220    3.364556 C.3      1 SUBUNIT   -0.0650
     34 H34          -5.145000   -2.004400    1.263300 H        1 SUBUNIT    0.0419
     35 H35          -5.083100   -0.773500    0.191600 H        1 SUBUNIT    0.0419
     36 H36          -5.469800   -3.549600   -0.531500 H        1 SUBUNIT    0.0443
     37 H37          -6.649800   -2.420500   -0.550600 H        1 SUBUNIT    0.0443
     38 H38          -3.624100   -3.378400   -2.107400 H        1 SUBUNIT    0.0443
     39 H39          -3.580600   -2.131400   -3.161400 H        1 SUBUNIT    0.0443
     40 H40          -3.255800   -0.608400   -1.351100 H        1 SUBUNIT    0.0419
     41 H41          -2.072700   -1.734400   -1.340900 H        1 SUBUNIT    0.0419
     42 H42          -5.758400   -2.725200   -3.930800 H        1 SUBUNIT    0.0394
     43 H43          -7.004500   -2.828000   -2.880800 H        1 SUBUNIT    0.0394
     44 H44          -5.826000   -3.957900   -2.862400 H        1 SUBUNIT    0.0394
     45 H45          -1.204300   -3.540100    0.828900 H        1 SUBUNIT    0.0610
     46 H46           1.095700   -4.165300    0.811900 H        1 SUBUNIT    0.0650
     47 H47          -0.132600    0.374600    1.635200 H        1 SUBUNIT    0.0618
     48 H48           2.764400   -4.389500    0.383700 H        1 SUBUNIT    0.0569
     49 H49           4.367800   -4.111600    0.523500 H        1 SUBUNIT    0.0569
     50 H50           3.692300   -5.803400    2.092500 H        1 SUBUNIT    0.0254
     51 H51           2.622600   -4.763900    2.756500 H        1 SUBUNIT    0.0254
     52 H52           4.225600   -4.486100    2.896300 H        1 SUBUNIT    0.0254
     53 H53           4.108200   -1.310200    2.266000 H        1 SUBUNIT    0.1577
     54 H54           6.646300    4.320000    2.788900 H        1 SUBUNIT    0.0707
     55 H55           7.001600    2.869300    2.129500 H        1 SUBUNIT    0.0707
     56 H56           6.548800    2.965600    3.695300 H        1 SUBUNIT    0.0707
     57 H57           1.792702    4.397727    0.330604 H        1 SUBUNIT    0.0334
     58 H58           1.028674    3.997269    1.717565 H        1 SUBUNIT    0.0334
     59 H59           2.814826    6.275880    1.478860 H        1 SUBUNIT    0.0268
     60 H60           1.186762    6.405282    1.460746 H        1 SUBUNIT    0.0268
     61 H61           2.072059    6.843361    3.683546 H        1 SUBUNIT    0.0230
     62 H62           2.685241    5.330598    3.715478 H        1 SUBUNIT    0.0230
     63 H63           1.068183    5.555863    3.695857 H        1 SUBUNIT    0.0230
@<SCITEGIC>ATOM_PROPERTY
Formal Charge
SciTegic.value.StringValue
1 0
2 0
3 0
4 0
5 0
6 0
7 0
8 0
9 0
10 0
11 0
12 0
13 0
14 0
15 0
16 0
17 0
18 0
19 0
20 0
21 0
22 0
23 0
24 0
25 0
26 0
27 0
28 0
29 0
30 0
31 0
32 0
33 0
34 0
35 0
36 0
37 0
38 0
39 0
40 0
41 0
42 0
43 0
44 0
45 0
46 0
47 0
48 0
49 0
50 0
51 0
52 0
53 0
54 0
55 0
56 0
57 0
58 0
59 0
60 0
61 0
62 0
63 0

@<SCITEGIC>ATOM_PROPERTY
pdb_tempFactor
SciTegic.value.DoubleValue
1 0.00
2 0.00
3 0.00
4 0.00
5 0.00
6 0.00
7 0.00
8 0.00
9 0.00
10 0.00
11 0.00
12 0.00
13 0.00
14 0.00
15 0.00
16 0.00
17 0.00
18 0.00
19 0.00
20 0.00
21 0.00
22 0.00
23 0.00
24 0.00
25 0.00
26 0.00
27 0.00
28 0.00
29 0.00
30 0.00
31 0.00
32 0.00
33 0.00
34 0.00
35 0.00
36 0.00
37 0.00
38 0.00
39 0.00
40 0.00
41 0.00
42 0.00
43 0.00
44 0.00
45 0.00
46 0.00
47 0.00
48 0.00
49 0.00
50 0.00
51 0.00
52 0.00
53 0.00
54 0.00
55 0.00
56 0.00
57 0.00
58 0.00
59 0.00
60 0.00
61 0.00
62 0.00
63 0.00

@<SCITEGIC>ATOM_PROPERTY
pdb_occupancy
SciTegic.value.DoubleValue
1 1.00
2 1.00
3 1.00
4 1.00
5 1.00
6 1.00
7 1.00
8 1.00
9 1.00
10 1.00
11 1.00
12 1.00
13 1.00
14 1.00
15 1.00
16 1.00
17 1.00
18 1.00
19 1.00
20 1.00
21 1.00
22 1.00
23 1.00
24 1.00
25 1.00
26 1.00
27 1.00
28 1.00
29 1.00
30 1.00
31 1.00
32 1.00
33 1.00
34 1.00
35 1.00
36 1.00
37 1.00
38 1.00
39 1.00
40 1.00
41 1.00
42 1.00
43 1.00
44 1.00
45 1.00
46 1.00
47 1.00
48 1.00
49 1.00
50 1.00
51 1.00
52 1.00
53 1.00
54 1.00
55 1.00
56 1.00
57 1.00
58 1.00
59 1.00
60 1.00
61 1.00
62 1.00
63 1.00

