#	copyright 2023 drugdesign.org
#	Creation time:	2024-01-11T10:58:30Z

@<TRIPOS>MOLECULE
Molecule
   15    14     0 0 0
SMALL
USER_CHARGES


@<TRIPOS>ATOM
      1 N1           -4.628154    0.918634    0.027548 N.am     1 SUBUNIT   -0.3083
      2 C2           -3.222107    0.961735    0.101803 C.2      1 SUBUNIT    0.2106
      3 C4           -5.419183    1.523047    1.071699 C.3      1 SUBUNIT    0.0023
      4 C6           -5.277456    0.275709   -1.086450 C.3      1 SUBUNIT    0.0023
      5 C8           -2.380652    0.336906   -0.980770 C.3      1 SUBUNIT    0.0129
      6 O12          -2.672606    1.515943    1.061702 O.2      1 SUBUNIT   -0.2778
      7 H12          -6.390482    1.403903    0.866029 H        1 SUBUNIT    0.0433
      8 H14          -5.208129    2.498933    1.127892 H        1 SUBUNIT    0.0433
      9 H16          -5.208015    1.085847    1.945952 H        1 SUBUNIT    0.0433
     10 H18          -6.269342    0.338948   -0.976545 H        1 SUBUNIT    0.0433
     11 H20          -5.007026   -0.686456   -1.120501 H        1 SUBUNIT    0.0433
     12 H22          -5.007281    0.727787   -1.936559 H        1 SUBUNIT    0.0433
     13 H24          -1.412316    0.461760   -0.764775 H        1 SUBUNIT    0.0328
     14 H26          -2.585326    0.773889   -1.856675 H        1 SUBUNIT    0.0328
     15 H28          -2.585091   -0.640188   -1.040328 H        1 SUBUNIT    0.0328
@<TRIPOS>BOND
     1    1    2 1
     2    1    3 1
     3    1    4 1
     4    2    5 1
     5    2    6 2
     6    3    7 1
     7    3    8 1
     8    3    9 1
     9    4   10 1
    10    4   11 1
    11    4   12 1
    12    5   13 1
    13    5   14 1
    14    5   15 1
@<SCITEGIC>ATOM_PROPERTY
Formal Charge
SciTegic.value.StringValue
1 0
2 0
3 0
4 0
5 0
6 0
7 0
8 0
9 0
10 0
11 0
12 0
13 0
14 0
15 0

@<SCITEGIC>ATOM_PROPERTY
pdb_tempFactor
SciTegic.value.DoubleValue
1 0.00
2 0.00
3 0.00
4 0.00
5 0.00
6 0.00
7 0.00
8 0.00
9 0.00
10 0.00
11 0.00
12 0.00
13 0.00
14 0.00
15 0.00

@<SCITEGIC>ATOM_PROPERTY
pdb_occupancy
SciTegic.value.DoubleValue
1 1.00
2 1.00
3 1.00
4 1.00
5 1.00
6 1.00
7 1.00
8 1.00
9 1.00
10 1.00
11 1.00
12 1.00
13 1.00
14 1.00
15 1.00

#	copyright 2023 drugdesign.org
#	Creation time:	2024-01-11T10:58:31Z

@<TRIPOS>MOLECULE
Molecule
    9     8     0 0 0
SMALL
USER_CHARGES


@<TRIPOS>ATOM
      1 O1           -1.941678    0.277383    0.000000 O.3      1 SUBUNIT    0.0000
      2 C2           -0.441678    0.277383    0.000000 C.3      1 SUBUNIT    0.0000
      3 C4           -2.442399    1.691341    0.000000 C.3      1 SUBUNIT    0.0000
      4 H6           -0.107878   -0.665217   -0.000000 H        1 SUBUNIT    0.0000
      5 H8           -0.107878    0.748683    0.816400 H        1 SUBUNIT    0.0000
      6 H10          -0.107878    0.748683   -0.816400 H        1 SUBUNIT    0.0000
      7 H12          -3.442358    1.691341    0.000000 H        1 SUBUNIT    0.0000
      8 H14          -2.109560    2.163321   -0.816400 H        1 SUBUNIT    0.0000
      9 H16          -2.109560    2.163321    0.816400 H        1 SUBUNIT    0.0000
@<TRIPOS>BOND
     1    1    2 1
     2    1    3 1
     3    2    4 1
     4    2    5 1
     5    2    6 1
     6    3    7 1
     7    3    8 1
     8    3    9 1
@<SCITEGIC>ATOM_PROPERTY
Formal Charge
SciTegic.value.StringValue
1 0
2 0
3 0
4 0
5 0
6 0
7 0
8 0
9 0

@<SCITEGIC>ATOM_PROPERTY
pdb_tempFactor
SciTegic.value.DoubleValue
1 0.00
2 0.00
3 0.00
4 0.00
5 0.00
6 0.00
7 0.00
8 0.00
9 0.00

@<SCITEGIC>ATOM_PROPERTY
pdb_occupancy
SciTegic.value.DoubleValue
1 1.00
2 1.00
3 1.00
4 1.00
5 1.00
6 1.00
7 1.00
8 1.00
9 1.00

#	copyright 2023 drugdesign.org
#	Creation time:	2024-01-11T10:58:31Z

@<TRIPOS>MOLECULE
Molecule
    9     8     0 0 0
SMALL
USER_CHARGES


@<TRIPOS>ATOM
      1 S1           -1.785206    0.192034    0.000000 S.3      1 SUBUNIT    0.0000
      2 C2            0.004794    0.192034    0.000000 C.3      1 SUBUNIT    0.0000
      3 C4           -2.382733    1.879358    0.000000 C.3      1 SUBUNIT    0.0000
      4 H6            0.338594   -0.750566   -0.000000 H        1 SUBUNIT    0.0000
      5 H8            0.338594    0.663334    0.816400 H        1 SUBUNIT    0.0000
      6 H10           0.338594    0.663334   -0.816400 H        1 SUBUNIT    0.0000
      7 H12          -3.382691    1.879358    0.000000 H        1 SUBUNIT    0.0000
      8 H14          -2.049894    2.351337   -0.816400 H        1 SUBUNIT    0.0000
      9 H16          -2.049894    2.351337    0.816400 H        1 SUBUNIT    0.0000
@<TRIPOS>BOND
     1    1    2 1
     2    1    3 1
     3    2    4 1
     4    2    5 1
     5    2    6 1
     6    3    7 1
     7    3    8 1
     8    3    9 1
@<SCITEGIC>ATOM_PROPERTY
Formal Charge
SciTegic.value.StringValue
1 0
2 0
3 0
4 0
5 0
6 0
7 0
8 0
9 0

@<SCITEGIC>ATOM_PROPERTY
pdb_tempFactor
SciTegic.value.DoubleValue
1 0.00
2 0.00
3 0.00
4 0.00
5 0.00
6 0.00
7 0.00
8 0.00
9 0.00

@<SCITEGIC>ATOM_PROPERTY
pdb_occupancy
SciTegic.value.DoubleValue
1 1.00
2 1.00
3 1.00
4 1.00
5 1.00
6 1.00
7 1.00
8 1.00
9 1.00

#	copyright 2023 drugdesign.org
#	Creation time:	2024-01-11T10:58:32Z

@<TRIPOS>MOLECULE
Molecule
    2     1     0 0 0
SMALL
USER_CHARGES


@<TRIPOS>ATOM
      1 C1           -1.936418    0.011295    0.000000 C.3      1 SUBUNIT    0.0000
      2 I2            0.163583    0.011295    0.000000 I        1 SUBUNIT    0.0000
@<TRIPOS>BOND
     1    1    2 1
@<SCITEGIC>ATOM_PROPERTY
Formal Charge
SciTegic.value.StringValue
1 0
2 0

@<SCITEGIC>ATOM_PROPERTY
pdb_tempFactor
SciTegic.value.DoubleValue
1 0.00
2 0.00

@<SCITEGIC>ATOM_PROPERTY
pdb_occupancy
SciTegic.value.DoubleValue
1 1.00
2 1.00

#	copyright 2023 drugdesign.org
#	Creation time:	2024-01-11T10:58:32Z

@<TRIPOS>MOLECULE
Molecule
    2     1     0 0 0
SMALL
USER_CHARGES


@<TRIPOS>ATOM
      1 C1           -1.755700   -0.000000    0.000000 C.3      1 SUBUNIT    0.0000
      2 Br2           0.154298   -0.000000    0.000000 Br       1 SUBUNIT    0.0000
@<TRIPOS>BOND
     1    1    2 1
@<SCITEGIC>ATOM_PROPERTY
Formal Charge
SciTegic.value.StringValue
1 0
2 0

@<SCITEGIC>ATOM_PROPERTY
pdb_tempFactor
SciTegic.value.DoubleValue
1 0.00
2 0.00

@<SCITEGIC>ATOM_PROPERTY
pdb_occupancy
SciTegic.value.DoubleValue
1 1.00
2 1.00

#	copyright 2023 drugdesign.org
#	Creation time:	2024-01-11T10:58:33Z

@<TRIPOS>MOLECULE
Molecule
    2     1     0 0 0
SMALL
USER_CHARGES


@<TRIPOS>ATOM
      1 C1           -1.730853    0.004518    0.000000 C.3      1 SUBUNIT    0.0000
      2 Cl2           0.029147    0.004518    0.000000 Cl       1 SUBUNIT    0.0000
@<TRIPOS>BOND
     1    1    2 1
@<SCITEGIC>ATOM_PROPERTY
Formal Charge
SciTegic.value.StringValue
1 0
2 0

@<SCITEGIC>ATOM_PROPERTY
pdb_tempFactor
SciTegic.value.DoubleValue
1 0.00
2 0.00

@<SCITEGIC>ATOM_PROPERTY
pdb_occupancy
SciTegic.value.DoubleValue
1 1.00
2 1.00

#	copyright 2023 drugdesign.org
#	Creation time:	2024-01-11T10:58:33Z

@<TRIPOS>MOLECULE
Molecule
    2     1     0 0 0
SMALL
USER_CHARGES


@<TRIPOS>ATOM
      1 C1           -1.507216    0.011295    0.000000 C.3      1 SUBUNIT    0.0000
      2 F2           -0.017217    0.011295    0.000000 F        1 SUBUNIT    0.0000
@<TRIPOS>BOND
     1    1    2 1
@<SCITEGIC>ATOM_PROPERTY
Formal Charge
SciTegic.value.StringValue
1 0
2 0

@<SCITEGIC>ATOM_PROPERTY
pdb_tempFactor
SciTegic.value.DoubleValue
1 0.00
2 0.00

@<SCITEGIC>ATOM_PROPERTY
pdb_occupancy
SciTegic.value.DoubleValue
1 1.00
2 1.00

#	copyright 2023 drugdesign.org
#	Creation time:	2024-01-11T10:58:34Z

@<TRIPOS>MOLECULE
Molecule
    2     1     0 0 0
SMALL
USER_CHARGES


@<TRIPOS>ATOM
      1 C1           -1.200000    0.000000    0.000000 C.3      1 SUBUNIT    0.0000
      2 H2           -0.110000    0.000000    0.000000 H        1 SUBUNIT    0.0000
@<TRIPOS>BOND
     1    1    2 1
@<SCITEGIC>ATOM_PROPERTY
Formal Charge
SciTegic.value.StringValue
1 0
2 0

@<SCITEGIC>ATOM_PROPERTY
pdb_tempFactor
SciTegic.value.DoubleValue
1 0.00
2 0.00

@<SCITEGIC>ATOM_PROPERTY
pdb_occupancy
SciTegic.value.DoubleValue
1 1.00
2 1.00

#	copyright 2023 drugdesign.org
#	Creation time:	2024-01-11T10:58:34Z

@<SCITEGIC>ROOT_PROPERTY
Ligand:MaximumNumberOfAtoms
SciTegic.value.IntegerValue
100

@<SCITEGIC>ROOT_PROPERTY
Ligand:HydrogenAtomsCountTowardsMaximum
SciTegic.value.BooleanValue
FALSE

@<TRIPOS>MOLECULE
Molecule
   17    16     0 0 0
SMALL
USER_CHARGES


@<TRIPOS>ATOM
      1 C1           -1.073969    0.533428    0.000000 C.3      1 SUBUNIT    0.0000
      2 C2            0.466031    0.533428    0.000000 C.3      1 SUBUNIT    0.0000
      3 C4           -1.588042    1.985092    0.000000 C.3      1 SUBUNIT    0.0000
      4 C6           -1.588006   -0.192354    1.257221 C.3      1 SUBUNIT    0.0000
      5 C8           -1.588006   -0.192354   -1.257221 C.3      1 SUBUNIT    0.0000
      6 H10           0.799831   -0.409172   -0.000000 H        1 SUBUNIT    0.0000
      7 H12           0.799831    1.004728    0.816400 H        1 SUBUNIT    0.0000
      8 H14           0.799831    1.004728   -0.816400 H        1 SUBUNIT    0.0000
      9 H16          -2.588000    1.985092    0.000000 H        1 SUBUNIT    0.0000
     10 H18          -1.255203    2.457072   -0.816400 H        1 SUBUNIT    0.0000
     11 H20          -1.255203    2.457072    0.816400 H        1 SUBUNIT    0.0000
     12 H22          -2.587965   -0.192366    1.257242 H        1 SUBUNIT    0.0000
     13 H24          -1.255156    0.278720    2.074139 H        1 SUBUNIT    0.0000
     14 H26          -1.255156   -1.135363    1.257803 H        1 SUBUNIT    0.0000
     15 H28          -2.587965   -0.192366   -1.257242 H        1 SUBUNIT    0.0000
     16 H30          -1.255156   -1.135363   -1.257803 H        1 SUBUNIT    0.0000
     17 H32          -1.255156    0.278720   -2.074139 H        1 SUBUNIT    0.0000
@<TRIPOS>BOND
     1    1    2 1
     2    1    3 1
     3    1    4 1
     4    1    5 1
     5    2    6 1
     6    2    7 1
     7    2    8 1
     8    3    9 1
     9    3   10 1
    10    3   11 1
    11    4   12 1
    12    4   13 1
    13    4   14 1
    14    5   15 1
    15    5   16 1
    16    5   17 1
@<SCITEGIC>ATOM_PROPERTY
Formal Charge
SciTegic.value.StringValue
1 0
2 0
3 0
4 0
5 0
6 0
7 0
8 0
9 0
10 0
11 0
12 0
13 0
14 0
15 0
16 0
17 0

@<SCITEGIC>ATOM_PROPERTY
pdb_tempFactor
SciTegic.value.DoubleValue
1 0.00
2 0.00
3 0.00
4 0.00
5 0.00
6 0.00
7 0.00
8 0.00
9 0.00
10 0.00
11 0.00
12 0.00
13 0.00
14 0.00
15 0.00
16 0.00
17 0.00

@<SCITEGIC>ATOM_PROPERTY
pdb_occupancy
SciTegic.value.DoubleValue
1 1.00
2 1.00
3 1.00
4 1.00
5 1.00
6 1.00
7 1.00
8 1.00
9 1.00
10 1.00
11 1.00
12 1.00
13 1.00
14 1.00
15 1.00
16 1.00
17 1.00

#	copyright 2023 drugdesign.org
#	Creation time:	2024-01-11T10:58:34Z

@<SCITEGIC>ROOT_PROPERTY
Ligand:MaximumNumberOfAtoms
SciTegic.value.IntegerValue
100

@<SCITEGIC>ROOT_PROPERTY
Ligand:HydrogenAtomsCountTowardsMaximum
SciTegic.value.BooleanValue
FALSE

@<TRIPOS>MOLECULE
Molecule
   17    16     0 0 0
SMALL
USER_CHARGES


@<TRIPOS>ATOM
      1 N1           -1.073969    0.533428    0.000000 N.4      1 SUBUNIT    0.0000
      2 C2            0.466031    0.533428    0.000000 C.3      1 SUBUNIT    0.0000
      3 C4           -1.588042    1.985092    0.000000 C.3      1 SUBUNIT    0.0000
      4 C6           -1.588006   -0.192354    1.257221 C.3      1 SUBUNIT    0.0000
      5 C8           -1.588006   -0.192354   -1.257221 C.3      1 SUBUNIT    0.0000
      6 H10           0.799831   -0.409172   -0.000000 H        1 SUBUNIT    0.0000
      7 H12           0.799831    1.004728    0.816400 H        1 SUBUNIT    0.0000
      8 H14           0.799831    1.004728   -0.816400 H        1 SUBUNIT    0.0000
      9 H16          -2.588000    1.985092    0.000000 H        1 SUBUNIT    0.0000
     10 H18          -1.255203    2.457072   -0.816400 H        1 SUBUNIT    0.0000
     11 H20          -1.255203    2.457072    0.816400 H        1 SUBUNIT    0.0000
     12 H22          -2.587965   -0.192366    1.257242 H        1 SUBUNIT    0.0000
     13 H24          -1.255156    0.278720    2.074139 H        1 SUBUNIT    0.0000
     14 H26          -1.255156   -1.135363    1.257803 H        1 SUBUNIT    0.0000
     15 H28          -2.587965   -0.192366   -1.257242 H        1 SUBUNIT    0.0000
     16 H30          -1.255156   -1.135363   -1.257803 H        1 SUBUNIT    0.0000
     17 H32          -1.255156    0.278720   -2.074139 H        1 SUBUNIT    0.0000
@<TRIPOS>BOND
     1    1    2 1
     2    1    3 1
     3    1    4 1
     4    1    5 1
     5    2    6 1
     6    2    7 1
     7    2    8 1
     8    3    9 1
     9    3   10 1
    10    3   11 1
    11    4   12 1
    12    4   13 1
    13    4   14 1
    14    5   15 1
    15    5   16 1
    16    5   17 1
@<SCITEGIC>ATOM_PROPERTY
Formal Charge
SciTegic.value.StringValue
1 0
2 0
3 0
4 0
5 0
6 0
7 0
8 0
9 0
10 0
11 0
12 0
13 0
14 0
15 0
16 0
17 0

@<SCITEGIC>ATOM_PROPERTY
pdb_tempFactor
SciTegic.value.DoubleValue
1 0.00
2 0.00
3 0.00
4 0.00
5 0.00
6 0.00
7 0.00
8 0.00
9 0.00
10 0.00
11 0.00
12 0.00
13 0.00
14 0.00
15 0.00
16 0.00
17 0.00

@<SCITEGIC>ATOM_PROPERTY
pdb_occupancy
SciTegic.value.DoubleValue
1 1.00
2 1.00
3 1.00
4 1.00
5 1.00
6 1.00
7 1.00
8 1.00
9 1.00
10 1.00
11 1.00
12 1.00
13 1.00
14 1.00
15 1.00
16 1.00
17 1.00

#	copyright 2023 drugdesign.org
#	Creation time:	2024-01-11T10:58:35Z

@<TRIPOS>MOLECULE
Molecule
   13    12     0 0 0
SMALL
USER_CHARGES


@<TRIPOS>ATOM
      1 N1           -1.025222    1.100508    0.291497 N.3      1 SUBUNIT    0.2576
      2 C2            0.316895    0.852646   -0.149836 C.3      1 SUBUNIT    0.0295
      3 C4           -1.695930    2.303508   -0.110708 C.3      1 SUBUNIT    0.0564
      4 C6           -1.701297    0.146019    1.122710 C.3      1 SUBUNIT    0.0564
      5 H8            0.632856   -0.022121    0.217409 H        1 SUBUNIT    0.0962
      6 H10           0.915479    1.585322    0.174107 H        1 SUBUNIT    0.0962
      7 H12          -2.619014    2.315483    0.273596 H        1 SUBUNIT    0.0679
      8 H14          -1.750406    2.337619   -1.108668 H        1 SUBUNIT    0.0679
      9 H16          -1.186460    3.097005    0.222247 H        1 SUBUNIT    0.0679
     10 H18          -2.623599    0.474548    1.326044 H        1 SUBUNIT    0.0679
     11 H20          -1.194080    0.028454    1.976503 H        1 SUBUNIT    0.0679
     12 H22          -1.758026   -0.731056    0.645660 H        1 SUBUNIT    0.0679
     13 H24           0.339328    0.821697   -1.149132 H        1 SUBUNIT    0.0000
@<TRIPOS>BOND
     1    1    2 1
     2    1    3 1
     3    1    4 1
     4    2    5 1
     5    2    6 1
     6    3    7 1
     7    3    8 1
     8    3    9 1
     9    4   10 1
    10    4   11 1
    11    4   12 1
    12    2   13 1
@<SCITEGIC>ATOM_PROPERTY
Formal Charge
SciTegic.value.StringValue
1 0
2 0
3 0
4 0
5 0
6 0
7 0
8 0
9 0
10 0
11 0
12 0
13 0

@<SCITEGIC>ATOM_PROPERTY
pdb_tempFactor
SciTegic.value.DoubleValue
1 0.00
2 0.00
3 0.00
4 0.00
5 0.00
6 0.00
7 0.00
8 0.00
9 0.00
10 0.00
11 0.00
12 0.00
13 0.00

@<SCITEGIC>ATOM_PROPERTY
pdb_occupancy
SciTegic.value.DoubleValue
1 1.00
2 1.00
3 1.00
4 1.00
5 1.00
6 1.00
7 1.00
8 1.00
9 1.00
10 1.00
11 1.00
12 1.00
13 1.00

#	copyright 2023 drugdesign.org
#	Creation time:	2024-01-11T10:58:35Z

@<TRIPOS>MOLECULE
Molecule
   13    12     0 0 0
SMALL
USER_CHARGES


@<TRIPOS>ATOM
      1 N1           -1.186064    0.934592    0.004448 N.3      1 SUBUNIT   -0.3122
      2 C2            0.283936    0.934398    0.003940 C.3      1 SUBUNIT   -0.0138
      3 C4           -1.676577    2.320340    0.003366 C.3      1 SUBUNIT   -0.0138
      4 C6           -1.676437    0.241421    1.204426 C.3      1 SUBUNIT   -0.0138
      5 H8            0.617611   -0.008246    0.004676 H        1 SUBUNIT    0.0393
      6 H10           0.618080    1.406391    0.819799 H        1 SUBUNIT    0.0393
      7 H12           0.617516    1.404916   -0.813000 H        1 SUBUNIT    0.0393
      8 H14          -2.676535    2.320480    0.003712 H        1 SUBUNIT    0.0393
      9 H16          -1.343954    2.791535   -0.813574 H        1 SUBUNIT    0.0393
     10 H18          -1.343390    2.793010    0.819225 H        1 SUBUNIT    0.0393
     11 H20          -2.676396    0.241550    1.204778 H        1 SUBUNIT    0.0393
     12 H22          -1.343251    0.712144    2.021410 H        1 SUBUNIT    0.0393
     13 H24          -1.343720   -0.701634    1.204545 H        1 SUBUNIT    0.0393
@<TRIPOS>BOND
     1    1    2 1
     2    1    3 1
     3    1    4 1
     4    2    5 1
     5    2    6 1
     6    2    7 1
     7    3    8 1
     8    3    9 1
     9    3   10 1
    10    4   11 1
    11    4   12 1
    12    4   13 1
@<SCITEGIC>ATOM_PROPERTY
Formal Charge
SciTegic.value.StringValue
1 0
2 0
3 0
4 0
5 0
6 0
7 0
8 0
9 0
10 0
11 0
12 0
13 0

@<SCITEGIC>ATOM_PROPERTY
pdb_tempFactor
SciTegic.value.DoubleValue
1 0.00
2 0.00
3 0.00
4 0.00
5 0.00
6 0.00
7 0.00
8 0.00
9 0.00
10 0.00
11 0.00
12 0.00
13 0.00

@<SCITEGIC>ATOM_PROPERTY
pdb_occupancy
SciTegic.value.DoubleValue
1 1.00
2 1.00
3 1.00
4 1.00
5 1.00
6 1.00
7 1.00
8 1.00
9 1.00
10 1.00
11 1.00
12 1.00
13 1.00

#	copyright 2023 drugdesign.org
#	Creation time:	2024-01-11T10:58:36Z

@<TRIPOS>MOLECULE
Molecule
   10     9     0 0 0
SMALL
USER_CHARGES


@<TRIPOS>ATOM
      1 N1           -3.179348    0.900520   -0.000231 N.2      1 SUBUNIT   -0.1979
      2 N2           -1.969633    0.934892   -0.000229 N.2      1 SUBUNIT   -0.1979
      3 C4           -3.931368    2.122239   -0.000455 C.3      1 SUBUNIT    0.0487
      4 C6           -1.217613   -0.286827   -0.000005 C.3      1 SUBUNIT    0.0487
      5 H8           -4.909061    1.912397   -0.000424 H        1 SUBUNIT    0.0497
      6 H10          -3.704981    2.653410   -0.816948 H        1 SUBUNIT    0.0497
      7 H12          -3.704992    2.653702    0.815852 H        1 SUBUNIT    0.0497
      8 H14          -0.239920   -0.076985   -0.000036 H        1 SUBUNIT    0.0497
      9 H16          -1.443990   -0.818290   -0.816312 H        1 SUBUNIT    0.0497
     10 H18          -1.444001   -0.817998    0.816488 H        1 SUBUNIT    0.0497
@<TRIPOS>BOND
     1    1    2 2
     2    1    3 1
     3    2    4 1
     4    3    5 1
     5    3    6 1
     6    3    7 1
     7    4    8 1
     8    4    9 1
     9    4   10 1
@<SCITEGIC>ATOM_PROPERTY
Formal Charge
SciTegic.value.StringValue
1 0
2 0
3 0
4 0
5 0
6 0
7 0
8 0
9 0
10 0

@<SCITEGIC>ATOM_PROPERTY
pdb_tempFactor
SciTegic.value.DoubleValue
1 0.00
2 0.00
3 0.00
4 0.00
5 0.00
6 0.00
7 0.00
8 0.00
9 0.00
10 0.00

@<SCITEGIC>ATOM_PROPERTY
pdb_occupancy
SciTegic.value.DoubleValue
1 1.00
2 1.00
3 1.00
4 1.00
5 1.00
6 1.00
7 1.00
8 1.00
9 1.00
10 1.00

#	copyright 2023 drugdesign.org
#	Creation time:	2024-01-11T10:58:36Z

@<TRIPOS>MOLECULE
Molecule
    6     5     0 0 0
SMALL
USER_CHARGES


@<TRIPOS>ATOM
      1 N1           -3.307255    0.917496    0.000000 N.1      1 SUBUNIT    0.0000
      2 C2           -1.842105    0.917496    0.000000 C.1      1 SUBUNIT    0.0000
      3 C6           -0.302105    0.917496    0.000000 C.3      1 SUBUNIT    0.0000
      4 H6            0.031695    0.917496   -0.942600 H        1 SUBUNIT    0.0000
      5 H8            0.031695    0.101096    0.471300 H        1 SUBUNIT    0.0000
      6 H10           0.031695    1.733896    0.471300 H        1 SUBUNIT    0.0000
@<TRIPOS>BOND
     1    1    2 3
     2    2    3 1
     3    3    4 1
     4    3    5 1
     5    3    6 1
@<SCITEGIC>ATOM_PROPERTY
Formal Charge
SciTegic.value.StringValue
1 0
2 0
3 0
4 0
5 0
6 0

@<SCITEGIC>ATOM_PROPERTY
pdb_tempFactor
SciTegic.value.DoubleValue
1 0.00
2 0.00
3 0.00
4 0.00
5 0.00
6 0.00

@<SCITEGIC>ATOM_PROPERTY
pdb_occupancy
SciTegic.value.DoubleValue
1 1.00
2 1.00
3 1.00
4 1.00
5 1.00
6 1.00

#	copyright 2023 drugdesign.org
#	Creation time:	2024-01-11T10:58:37Z

@<TRIPOS>MOLECULE
Molecule
   10     9     0 0 0
SMALL
USER_CHARGES


@<TRIPOS>ATOM
      1 C1           -3.307255    0.917496    0.000000 C.1      1 SUBUNIT    0.0000
      2 C2           -1.842105    0.917496    0.000000 C.1      1 SUBUNIT    0.0000
      3 C4           -4.847255    0.917496    0.000000 C.3      1 SUBUNIT    0.0000
      4 C6           -0.302105    0.917496    0.000000 C.3      1 SUBUNIT    0.0000
      5 H8           -5.181055    1.584015   -0.666519 H        1 SUBUNIT    0.0000
      6 H10          -5.181055    1.161519    0.910541 H        1 SUBUNIT    0.0000
      7 H12          -5.181055    0.006955   -0.244023 H        1 SUBUNIT    0.0000
      8 H14           0.031695    0.917496   -0.942600 H        1 SUBUNIT    0.0000
      9 H16           0.031695    0.101096    0.471300 H        1 SUBUNIT    0.0000
     10 H18           0.031695    1.733896    0.471300 H        1 SUBUNIT    0.0000
@<TRIPOS>BOND
     1    1    2 3
     2    1    3 1
     3    2    4 1
     4    3    5 1
     5    3    6 1
     6    3    7 1
     7    4    8 1
     8    4    9 1
     9    4   10 1
@<SCITEGIC>ATOM_PROPERTY
Formal Charge
SciTegic.value.StringValue
1 0
2 0
3 0
4 0
5 0
6 0
7 0
8 0
9 0
10 0

@<SCITEGIC>ATOM_PROPERTY
pdb_tempFactor
SciTegic.value.DoubleValue
1 0.00
2 0.00
3 0.00
4 0.00
5 0.00
6 0.00
7 0.00
8 0.00
9 0.00
10 0.00

@<SCITEGIC>ATOM_PROPERTY
pdb_occupancy
SciTegic.value.DoubleValue
1 1.00
2 1.00
3 1.00
4 1.00
5 1.00
6 1.00
7 1.00
8 1.00
9 1.00
10 1.00

#	copyright 2023 drugdesign.org
#	Creation time:	2024-01-11T10:58:37Z

@<TRIPOS>MOLECULE
Molecule
   18    17     0 0 0
SMALL
USER_CHARGES


@<TRIPOS>ATOM
      1 C1           -2.623193    0.263753    0.000105 C.2      1 SUBUNIT   -0.0777
      2 C2           -1.285830    0.262572   -0.000636 C.2      1 SUBUNIT   -0.0777
      3 C4           -3.381353    1.569763    0.001489 C.3      1 SUBUNIT   -0.0439
      4 C6           -3.383874   -1.039759    0.000758 C.3      1 SUBUNIT   -0.0439
      5 C8           -0.526848   -1.042779   -0.001402 C.3      1 SUBUNIT   -0.0439
      6 C10          -0.525185    1.566691   -0.000471 C.3      1 SUBUNIT   -0.0439
      7 H12          -4.364133    1.385211    0.001897 H        1 SUBUNIT    0.0276
      8 H14          -3.141792    2.095666   -0.814655 H        1 SUBUNIT    0.0276
      9 H16          -3.140887    2.094460    0.818144 H        1 SUBUNIT    0.0276
     10 H18          -4.366232   -0.852972    0.001269 H        1 SUBUNIT    0.0276
     11 H20          -3.144605   -1.565459    0.817118 H        1 SUBUNIT    0.0276
     12 H22          -3.145510   -1.565749   -0.815681 H        1 SUBUNIT    0.0276
     13 H24           0.455805   -0.857549   -0.001897 H        1 SUBUNIT    0.0276
     14 H26          -0.766950   -1.568028   -0.817807 H        1 SUBUNIT    0.0276
     15 H28          -0.766045   -1.568460    0.814992 H        1 SUBUNIT    0.0276
     16 H30           0.457215    1.380123   -0.001099 H        1 SUBUNIT    0.0276
     17 H32          -0.763667    2.092115    0.816298 H        1 SUBUNIT    0.0276
     18 H34          -0.764571    2.092850   -0.816501 H        1 SUBUNIT    0.0276
@<TRIPOS>BOND
     1    1    2 2
     2    1    3 1
     3    1    4 1
     4    2    5 1
     5    2    6 1
     6    3    7 1
     7    3    8 1
     8    3    9 1
     9    4   10 1
    10    4   11 1
    11    4   12 1
    12    5   13 1
    13    5   14 1
    14    5   15 1
    15    6   16 1
    16    6   17 1
    17    6   18 1
@<SCITEGIC>ATOM_PROPERTY
Formal Charge
SciTegic.value.StringValue
1 0
2 0
3 0
4 0
5 0
6 0
7 0
8 0
9 0
10 0
11 0
12 0
13 0
14 0
15 0
16 0
17 0
18 0

@<SCITEGIC>ATOM_PROPERTY
pdb_tempFactor
SciTegic.value.DoubleValue
1 0.00
2 0.00
3 0.00
4 0.00
5 0.00
6 0.00
7 0.00
8 0.00
9 0.00
10 0.00
11 0.00
12 0.00
13 0.00
14 0.00
15 0.00
16 0.00
17 0.00
18 0.00

@<SCITEGIC>ATOM_PROPERTY
pdb_occupancy
SciTegic.value.DoubleValue
1 1.00
2 1.00
3 1.00
4 1.00
5 1.00
6 1.00
7 1.00
8 1.00
9 1.00
10 1.00
11 1.00
12 1.00
13 1.00
14 1.00
15 1.00
16 1.00
17 1.00
18 1.00

#	copyright 2023 drugdesign.org
#	Creation time:	2024-01-11T10:58:37Z

@<TRIPOS>MOLECULE
Molecule
   30    30     0 0 0
SMALL
USER_CHARGES


@<TRIPOS>ATOM
      1 C1           -1.159181    1.824275    0.000109 C.ar     1 SUBUNIT    0.0000
      2 C2            0.044951    1.128948    0.000086 C.ar     1 SUBUNIT    0.0000
      3 C3            0.044846   -0.261525    0.000193 C.ar     1 SUBUNIT    0.0000
      4 C4           -1.159392   -0.956670    0.000323 C.ar     1 SUBUNIT    0.0000
      5 C5           -2.363523   -0.261342    0.000347 C.ar     1 SUBUNIT    0.0000
      6 C6           -2.363420    1.129128    0.000237 C.ar     1 SUBUNIT    0.0000
      7 C13          -1.159065    3.364275   -0.000008 C.3      1 SUBUNIT    0.0000
      8 C15           1.378688    1.898848   -0.000058 C.3      1 SUBUNIT    0.0000
      9 C17           1.378467   -1.031625    0.000166 C.3      1 SUBUNIT    0.0000
     10 C19          -1.159508   -2.496670    0.000441 C.3      1 SUBUNIT    0.0000
     11 C21          -3.697260   -1.031242    0.000494 C.3      1 SUBUNIT    0.0000
     12 C23          -3.697042    1.899228    0.000259 C.3      1 SUBUNIT    0.0000
     13 H25          -2.101640    3.698146    0.000027 H        1 SUBUNIT    0.0000
     14 H27          -0.687792    3.697978   -0.816462 H        1 SUBUNIT    0.0000
     15 H29          -0.687689    3.698102    0.816338 H        1 SUBUNIT    0.0000
     16 H31           2.139019    1.249375   -0.000056 H        1 SUBUNIT    0.0000
     17 H33           1.432213    2.473964    0.816295 H        1 SUBUNIT    0.0000
     18 H35           1.432109    2.473839   -0.816505 H        1 SUBUNIT    0.0000
     19 H37           1.196172   -2.014827    0.000254 H        1 SUBUNIT    0.0000
     20 H39           1.903266   -0.790344    0.816514 H        1 SUBUNIT    0.0000
     21 H41           1.903162   -0.790470   -0.816286 H        1 SUBUNIT    0.0000
     22 H43          -2.102133   -2.830398    0.000527 H        1 SUBUNIT    0.0000
     23 H45          -0.688181   -2.830443    0.816837 H        1 SUBUNIT    0.0000
     24 H47          -0.688286   -2.830568   -0.815963 H        1 SUBUNIT    0.0000
     25 H49          -4.457591   -0.381770    0.000492 H        1 SUBUNIT    0.0000
     26 H51          -3.750679   -1.606232    0.816943 H        1 SUBUNIT    0.0000
     27 H53          -3.750785   -1.606360   -0.815857 H        1 SUBUNIT    0.0000
     28 H55          -3.514748    2.882430    0.000170 H        1 SUBUNIT    0.0000
     29 H57          -4.221739    1.658073    0.816710 H        1 SUBUNIT    0.0000
     30 H59          -4.221839    1.657945   -0.816090 H        1 SUBUNIT    0.0000
@<TRIPOS>BOND
     1    1    2 ar
     2    2    3 ar
     3    3    4 ar
     4    4    5 ar
     5    5    6 ar
     6    6    1 ar
     7    1    7 1
     8    2    8 1
     9    3    9 1
    10    4   10 1
    11    5   11 1
    12    6   12 1
    13    7   13 1
    14    7   14 1
    15    7   15 1
    16    8   16 1
    17    8   17 1
    18    8   18 1
    19    9   19 1
    20    9   20 1
    21    9   21 1
    22   10   22 1
    23   10   23 1
    24   10   24 1
    25   11   25 1
    26   11   26 1
    27   11   27 1
    28   12   28 1
    29   12   29 1
    30   12   30 1
@<SCITEGIC>ATOM_PROPERTY
Formal Charge
SciTegic.value.StringValue
1 0
2 0
3 0
4 0
5 0
6 0
7 0
8 0
9 0
10 0
11 0
12 0
13 0
14 0
15 0
16 0
17 0
18 0
19 0
20 0
21 0
22 0
23 0
24 0
25 0
26 0
27 0
28 0
29 0
30 0

@<SCITEGIC>ATOM_PROPERTY
pdb_tempFactor
SciTegic.value.DoubleValue
1 0.00
2 0.00
3 0.00
4 0.00
5 0.00
6 0.00
7 0.00
8 0.00
9 0.00
10 0.00
11 0.00
12 0.00
13 0.00
14 0.00
15 0.00
16 0.00
17 0.00
18 0.00
19 0.00
20 0.00
21 0.00
22 0.00
23 0.00
24 0.00
25 0.00
26 0.00
27 0.00
28 0.00
29 0.00
30 0.00

@<SCITEGIC>ATOM_PROPERTY
pdb_occupancy
SciTegic.value.DoubleValue
1 1.00
2 1.00
3 1.00
4 1.00
5 1.00
6 1.00
7 1.00
8 1.00
9 1.00
10 1.00
11 1.00
12 1.00
13 1.00
14 1.00
15 1.00
16 1.00
17 1.00
18 1.00
19 1.00
20 1.00
21 1.00
22 1.00
23 1.00
24 1.00
25 1.00
26 1.00
27 1.00
28 1.00
29 1.00
30 1.00

#	copyright 2023 drugdesign.org
#	Creation time:	2024-01-11T10:58:38Z

@<TRIPOS>MOLECULE
Molecule
   25    25     0 0 0
SMALL
USER_CHARGES


@<TRIPOS>ATOM
      1 N1           -3.307255    2.896062    0.000000 N.pl3    1 SUBUNIT    0.0000
      2 C2           -2.061368    1.990873    0.000000 C.2      1 SUBUNIT    0.0000
      3 C3           -2.537255    0.526246    0.000000 C.2      1 SUBUNIT    0.0000
      4 C4           -4.077254    0.526246    0.000000 C.2      1 SUBUNIT    0.0000
      5 C5           -4.553141    1.990873    0.000000 C.2      1 SUBUNIT    0.0000
      6 C11          -3.307255    4.416062    0.000000 C.3      1 SUBUNIT    0.0000
      7 C13          -0.596741    2.466759    0.000000 C.3      1 SUBUNIT    0.0000
      8 C15          -1.632065   -0.719641    0.000000 C.3      1 SUBUNIT    0.0000
      9 C17          -4.982444   -0.719641    0.000000 C.3      1 SUBUNIT    0.0000
     10 C19          -6.017768    2.466759    0.000000 C.3      1 SUBUNIT    0.0000
     11 H21          -4.249855    4.749862    0.000000 H        1 SUBUNIT    0.0000
     12 H23          -2.835955    4.749862   -0.816400 H        1 SUBUNIT    0.0000
     13 H25          -2.835955    4.749862    0.816400 H        1 SUBUNIT    0.0000
     14 H27           0.012001    1.673443   -0.000000 H        1 SUBUNIT    0.0000
     15 H29          -0.424918    3.018142    0.816400 H        1 SUBUNIT    0.0000
     16 H31          -0.424918    3.018142   -0.816400 H        1 SUBUNIT    0.0000
     17 H33          -2.198442   -1.543737    0.000000 H        1 SUBUNIT    0.0000
     18 H35          -1.054573   -0.712667    0.816400 H        1 SUBUNIT    0.0000
     19 H37          -1.054573   -0.712667   -0.816400 H        1 SUBUNIT    0.0000
     20 H39          -5.941226   -0.435644    0.000000 H        1 SUBUNIT    0.0000
     21 H41          -4.797357   -1.266714    0.816400 H        1 SUBUNIT    0.0000
     22 H43          -4.797357   -1.266714   -0.816400 H        1 SUBUNIT    0.0000
     23 H45          -6.043951    3.466374    0.000000 H        1 SUBUNIT    0.0000
     24 H47          -6.480870    2.121675    0.816400 H        1 SUBUNIT    0.0000
     25 H49          -6.480870    2.121675   -0.816400 H        1 SUBUNIT    0.0000
@<TRIPOS>BOND
     1    1    2 1
     2    2    3 2
     3    3    4 1
     4    4    5 2
     5    5    1 1
     6    1    6 1
     7    2    7 1
     8    3    8 1
     9    4    9 1
    10    5   10 1
    11    6   11 1
    12    6   12 1
    13    6   13 1
    14    7   14 1
    15    7   15 1
    16    7   16 1
    17    8   17 1
    18    8   18 1
    19    8   19 1
    20    9   20 1
    21    9   21 1
    22    9   22 1
    23   10   23 1
    24   10   24 1
    25   10   25 1
@<SCITEGIC>ATOM_PROPERTY
Formal Charge
SciTegic.value.StringValue
1 0
2 0
3 0
4 0
5 0
6 0
7 0
8 0
9 0
10 0
11 0
12 0
13 0
14 0
15 0
16 0
17 0
18 0
19 0
20 0
21 0
22 0
23 0
24 0
25 0

@<SCITEGIC>ATOM_PROPERTY
pdb_tempFactor
SciTegic.value.DoubleValue
1 0.00
2 0.00
3 0.00
4 0.00
5 0.00
6 0.00
7 0.00
8 0.00
9 0.00
10 0.00
11 0.00
12 0.00
13 0.00
14 0.00
15 0.00
16 0.00
17 0.00
18 0.00
19 0.00
20 0.00
21 0.00
22 0.00
23 0.00
24 0.00
25 0.00

@<SCITEGIC>ATOM_PROPERTY
pdb_occupancy
SciTegic.value.DoubleValue
1 1.00
2 1.00
3 1.00
4 1.00
5 1.00
6 1.00
7 1.00
8 1.00
9 1.00
10 1.00
11 1.00
12 1.00
13 1.00
14 1.00
15 1.00
16 1.00
17 1.00
18 1.00
19 1.00
20 1.00
21 1.00
22 1.00
23 1.00
24 1.00
25 1.00

#	copyright 2023 drugdesign.org
#	Creation time:	2024-01-11T10:58:38Z

@<TRIPOS>MOLECULE
Molecule
    0     0     0 0 0
SMALL
USER_CHARGES


#	copyright 2023 drugdesign.org
#	Creation time:	2024-01-11T10:58:38Z

@<TRIPOS>MOLECULE
Molecule
    7     6     0 0 0
SMALL
USER_CHARGES


@<TRIPOS>ATOM
      1 S1           -1.549504   -0.208531   -0.000054 S.3      1 SUBUNIT    0.4795
      2 C2           -0.067904    0.344686   -0.880345 C.3      1 SUBUNIT   -0.0799
      3 C4           -3.031100   -0.761723    0.880267 C.3      1 SUBUNIT   -0.0799
      4 C6           -0.940096   -1.912265   -0.044950 C.3      1 SUBUNIT   -0.0799
      5 C8           -0.707095    0.051070    1.580797 C.3      1 SUBUNIT   -0.0799
      6 C10          -2.158909    1.495206    0.044851 C.3      1 SUBUNIT   -0.0799
      7 C12          -2.391906   -0.468134   -1.580890 C.3      1 SUBUNIT   -0.0799
@<TRIPOS>BOND
     1    1    2 1
     2    1    3 1
     3    4    1 1
     4    5    1 1
     5    1    6 1
     6    7    1 1
@<SCITEGIC>ATOM_PROPERTY
Formal Charge
SciTegic.value.StringValue
1 0
2 0
3 0
4 0
5 0
6 0
7 0

@<SCITEGIC>ATOM_PROPERTY
pdb_tempFactor
SciTegic.value.DoubleValue
1 0.00
2 0.00
3 0.00
4 0.00
5 0.00
6 0.00
7 0.00

@<SCITEGIC>ATOM_PROPERTY
pdb_occupancy
SciTegic.value.DoubleValue
1 1.00
2 1.00
3 1.00
4 1.00
5 1.00
6 1.00
7 1.00

#	copyright 2023 drugdesign.org
#	Creation time:	2024-01-11T10:58:39Z

@<SCITEGIC>ROOT_PROPERTY
Ligand:MaximumNumberOfAtoms
SciTegic.value.IntegerValue
100

@<SCITEGIC>ROOT_PROPERTY
Ligand:HydrogenAtomsCountTowardsMaximum
SciTegic.value.BooleanValue
FALSE

@<TRIPOS>MOLECULE
Molecule
   11    10     0 0 0
SMALL
USER_CHARGES


@<TRIPOS>ATOM
      1 S1           -1.748381    0.244296    0.426349 S.o2     1 SUBUNIT    1.1958
      2 C2           -0.042494    0.097329   -0.160547 C.3      1 SUBUNIT   -0.0503
      3 C4           -2.456331    1.803084   -0.161088 C.3      1 SUBUNIT   -0.0503
      4 H6            0.349068   -0.763732    0.163753 H        1 SUBUNIT    0.0111
      5 H8            0.498251    0.861895    0.190292 H        1 SUBUNIT    0.0111
      6 H10          -3.398813    1.884736    0.162914 H        1 SUBUNIT    0.0111
      7 H12          -2.445557    1.818774   -1.160934 H        1 SUBUNIT    0.0111
      8 H14          -1.916302    2.568157    0.189751 H        1 SUBUNIT    0.0111
      9 O16          -2.568046   -0.915792   -0.106139 O.2      1 SUBUNIT   -0.5807
     10 H18          -0.031003    0.112512   -1.160394 H        1 SUBUNIT    0.0111
     11 O20          -1.765086    0.221137    1.943050 O.2      1 SUBUNIT   -0.5807
@<TRIPOS>BOND
     1    1    2 1
     2    1    3 1
     3    2    4 1
     4    2    5 1
     5    3    6 1
     6    3    7 1
     7    3    8 1
     8    1    9 2
     9    2   10 1
    10    1   11 2
@<SCITEGIC>ATOM_PROPERTY
Formal Charge
SciTegic.value.StringValue
1 0
2 0
3 0
4 0
5 0
6 0
7 0
8 0
9 0
10 0
11 0

@<SCITEGIC>ATOM_PROPERTY
pdb_tempFactor
SciTegic.value.DoubleValue
1 0.00
2 0.00
3 0.00
4 0.00
5 0.00
6 0.00
7 0.00
8 0.00
9 0.00
10 0.00
11 0.00

@<SCITEGIC>ATOM_PROPERTY
pdb_occupancy
SciTegic.value.DoubleValue
1 1.00
2 1.00
3 1.00
4 1.00
5 1.00
6 1.00
7 1.00
8 1.00
9 1.00
10 1.00
11 1.00

#	copyright 2023 drugdesign.org
#	Creation time:	2024-01-11T10:58:39Z

@<TRIPOS>MOLECULE
Molecule
   10     9     0 0 0
SMALL
USER_CHARGES


@<TRIPOS>ATOM
      1 S1           -1.750745    0.240768   -0.000005 S.o      1 SUBUNIT    0.7467
      2 C2           -0.000117    0.079943    0.000608 C.3      1 SUBUNIT   -0.0858
      3 C4           -2.486780    1.837269   -0.000734 C.3      1 SUBUNIT   -0.0858
      4 H6            0.246053   -0.889241    0.000986 H        1 SUBUNIT    0.0077
      5 H8            0.375136    0.518982    0.816994 H        1 SUBUNIT    0.0077
      6 H10          -3.482543    1.745759   -0.001026 H        1 SUBUNIT    0.0077
      7 H12          -2.198268    2.337475   -0.817195 H        1 SUBUNIT    0.0077
      8 H14          -2.198793    2.337979    0.815605 H        1 SUBUNIT    0.0077
      9 O16          -2.598922   -0.959426    0.000092 O.2      1 SUBUNIT   -0.6213
     10 H18           0.375662    0.518479   -0.815806 H        1 SUBUNIT    0.0077
@<TRIPOS>BOND
     1    1    2 1
     2    1    3 1
     3    2    4 1
     4    2    5 1
     5    3    6 1
     6    3    7 1
     7    3    8 1
     8    1    9 2
     9    2   10 1
@<SCITEGIC>ATOM_PROPERTY
Formal Charge
SciTegic.value.StringValue
1 0
2 0
3 0
4 0
5 0
6 0
7 0
8 0
9 0
10 0

@<SCITEGIC>ATOM_PROPERTY
pdb_tempFactor
SciTegic.value.DoubleValue
1 0.00
2 0.00
3 0.00
4 0.00
5 0.00
6 0.00
7 0.00
8 0.00
9 0.00
10 0.00

@<SCITEGIC>ATOM_PROPERTY
pdb_occupancy
SciTegic.value.DoubleValue
1 1.00
2 1.00
3 1.00
4 1.00
5 1.00
6 1.00
7 1.00
8 1.00
9 1.00
10 1.00

#	copyright 2023 drugdesign.org
#	Creation time:	2024-01-11T10:58:39Z

@<TRIPOS>MOLECULE
Molecule
    7     6     0 0 0
SMALL
USER_CHARGES


@<TRIPOS>ATOM
      1 C1           -2.475518    0.420790   -0.025933 C.3      1 SUBUNIT    0.1202
      2 N2           -1.099216    0.223442    0.319065 N.ar     1 SUBUNIT    0.5306
      3 H4           -2.796603    1.284298    0.362879 H        1 SUBUNIT    0.0740
      4 H6           -3.022525   -0.332497    0.339302 H        1 SUBUNIT    0.0740
      5 H8           -2.569510    0.448522   -1.021147 H        1 SUBUNIT    0.0740
      6 O10          -0.514024   -0.784208   -0.064553 O.2      1 SUBUNIT   -0.4364
      7 O12          -0.507235    1.059874    0.996110 O.2      1 SUBUNIT   -0.4364
@<TRIPOS>BOND
     1    1    2 1
     2    1    3 1
     3    1    4 1
     4    1    5 1
     5    2    6 ar
     6    2    7 ar
@<SCITEGIC>ATOM_PROPERTY
Formal Charge
SciTegic.value.StringValue
1 0
2 0
3 0
4 0
5 0
6 0
7 0

@<SCITEGIC>ATOM_PROPERTY
pdb_tempFactor
SciTegic.value.DoubleValue
1 0.00
2 0.00
3 0.00
4 0.00
5 0.00
6 0.00
7 0.00

@<SCITEGIC>ATOM_PROPERTY
pdb_occupancy
SciTegic.value.DoubleValue
1 1.00
2 1.00
3 1.00
4 1.00
5 1.00
6 1.00
7 1.00

#	copyright 2023 drugdesign.org
#	Creation time:	2024-01-11T10:58:40Z

@<TRIPOS>MOLECULE
Molecule
   10     9     0 0 0
SMALL
USER_CHARGES


@<TRIPOS>ATOM
      1 C1           -2.445552    1.201658   -0.000802 C.2      1 SUBUNIT    0.1263
      2 O2           -1.209343    1.199599   -0.003238 O.2      1 SUBUNIT   -0.3003
      3 C4           -3.194511    2.505872    0.000096 C.3      1 SUBUNIT   -0.0060
      4 C6           -3.197789   -0.100004    0.001000 C.3      1 SUBUNIT   -0.0060
      5 H8           -4.178145    2.325932    0.002115 H        1 SUBUNIT    0.0310
      6 H10          -2.953647    3.029678   -0.817012 H        1 SUBUNIT    0.0310
      7 H12          -2.950428    3.030401    0.815785 H        1 SUBUNIT    0.0310
      8 H14          -4.180927    0.082628    0.002892 H        1 SUBUNIT    0.0310
      9 H16          -2.955142   -0.624633    0.817052 H        1 SUBUNIT    0.0310
     10 H18          -2.958359   -0.625034   -0.815745 H        1 SUBUNIT    0.0310
@<TRIPOS>BOND
     1    1    2 2
     2    1    3 1
     3    1    4 1
     4    3    5 1
     5    3    6 1
     6    3    7 1
     7    4    8 1
     8    4    9 1
     9    4   10 1
@<SCITEGIC>ATOM_PROPERTY
Formal Charge
SciTegic.value.StringValue
1 0
2 0
3 0
4 0
5 0
6 0
7 0
8 0
9 0
10 0

@<SCITEGIC>ATOM_PROPERTY
pdb_tempFactor
SciTegic.value.DoubleValue
1 0.00
2 0.00
3 0.00
4 0.00
5 0.00
6 0.00
7 0.00
8 0.00
9 0.00
10 0.00

@<SCITEGIC>ATOM_PROPERTY
pdb_occupancy
SciTegic.value.DoubleValue
1 1.00
2 1.00
3 1.00
4 1.00
5 1.00
6 1.00
7 1.00
8 1.00
9 1.00
10 1.00

#	copyright 2023 drugdesign.org
#	Creation time:	2024-01-11T10:58:40Z

@<SCITEGIC>ROOT_PROPERTY
Ligand:MaximumNumberOfAtoms
SciTegic.value.IntegerValue
100

@<SCITEGIC>ROOT_PROPERTY
Ligand:HydrogenAtomsCountTowardsMaximum
SciTegic.value.BooleanValue
FALSE

@<TRIPOS>MOLECULE
Molecule
   19    19     0 0 0
SMALL
USER_CHARGES


@<TRIPOS>ATOM
      1 O1           -1.899004    1.408323    0.000000 O.3      1 SUBUNIT    0.0000
      2 C2           -1.129004    0.074644    0.000000 C.3      1 SUBUNIT    0.0000
      3 C3           -2.669004    0.074644    0.000000 C.3      1 SUBUNIT    0.0000
      4 C11          -0.359278   -0.369758   -1.257628 C.3      1 SUBUNIT    0.0000
      5 C13          -0.359278   -0.369758    1.257628 C.3      1 SUBUNIT    0.0000
      6 C15          -3.438731   -0.369758   -1.257628 C.3      1 SUBUNIT    0.0000
      7 C17          -3.438731   -0.369758    1.257628 C.3      1 SUBUNIT    0.0000
      8 H15           0.079829   -1.251602   -1.086009 H        1 SUBUNIT    0.0000
      9 H17           0.338057    0.311553   -1.480326 H        1 SUBUNIT    0.0000
     10 H19          -0.995197   -0.458202   -2.024335 H        1 SUBUNIT    0.0000
     11 H21           0.079829   -1.251602    1.086009 H        1 SUBUNIT    0.0000
     12 H23          -0.995197   -0.458202    2.024334 H        1 SUBUNIT    0.0000
     13 H25           0.338057    0.311553    1.480326 H        1 SUBUNIT    0.0000
     14 H27          -4.421984   -0.309114   -1.086009 H        1 SUBUNIT    0.0000
     15 H29          -3.197365   -1.314323   -1.480326 H        1 SUBUNIT    0.0000
     16 H31          -3.197365    0.225186   -2.024334 H        1 SUBUNIT    0.0000
     17 H33          -4.421984   -0.309114    1.086009 H        1 SUBUNIT    0.0000
     18 H35          -3.197365    0.225186    2.024334 H        1 SUBUNIT    0.0000
     19 H37          -3.197365   -1.314323    1.480326 H        1 SUBUNIT    0.0000
@<TRIPOS>BOND
     1    1    2 1
     2    2    3 1
     3    3    1 1
     4    2    4 1
     5    2    5 1
     6    3    6 1
     7    3    7 1
     8    4    8 1
     9    4    9 1
    10    4   10 1
    11    5   11 1
    12    5   12 1
    13    5   13 1
    14    6   14 1
    15    6   15 1
    16    6   16 1
    17    7   17 1
    18    7   18 1
    19    7   19 1
@<SCITEGIC>ATOM_PROPERTY
Formal Charge
SciTegic.value.StringValue
1 0
2 0
3 0
4 0
5 0
6 0
7 0
8 0
9 0
10 0
11 0
12 0
13 0
14 0
15 0
16 0
17 0
18 0
19 0

@<SCITEGIC>ATOM_PROPERTY
pdb_tempFactor
SciTegic.value.DoubleValue
1 0.00
2 0.00
3 0.00
4 0.00
5 0.00
6 0.00
7 0.00
8 0.00
9 0.00
10 0.00
11 0.00
12 0.00
13 0.00
14 0.00
15 0.00
16 0.00
17 0.00
18 0.00
19 0.00

@<SCITEGIC>ATOM_PROPERTY
pdb_occupancy
SciTegic.value.DoubleValue
1 1.00
2 1.00
3 1.00
4 1.00
5 1.00
6 1.00
7 1.00
8 1.00
9 1.00
10 1.00
11 1.00
12 1.00
13 1.00
14 1.00
15 1.00
16 1.00
17 1.00
18 1.00
19 1.00

#	copyright 2023 drugdesign.org
#	Creation time:	2024-01-11T10:58:41Z

@<SCITEGIC>ROOT_PROPERTY
Ligand:MaximumNumberOfAtoms
SciTegic.value.IntegerValue
100

@<SCITEGIC>ROOT_PROPERTY
Ligand:HydrogenAtomsCountTowardsMaximum
SciTegic.value.BooleanValue
FALSE

@<TRIPOS>MOLECULE
Molecule
   27    27     0 0 0
SMALL
USER_CHARGES


@<TRIPOS>ATOM
      1 C1           -1.899004    1.408323    0.000000 C.3      1 SUBUNIT    0.0000
      2 C2           -1.129004    0.074644    0.000000 C.3      1 SUBUNIT    0.0000
      3 C3           -2.669004    0.074644    0.000000 C.3      1 SUBUNIT    0.0000
      4 C7           -1.899004    2.297126    1.257628 C.3      1 SUBUNIT    0.0000
      5 C9           -1.899004    2.297126   -1.257628 C.3      1 SUBUNIT    0.0000
      6 C11          -0.359278   -0.369758   -1.257628 C.3      1 SUBUNIT    0.0000
      7 C13          -0.359278   -0.369758    1.257628 C.3      1 SUBUNIT    0.0000
      8 C15          -3.438731   -0.369758   -1.257628 C.3      1 SUBUNIT    0.0000
      9 C17          -3.438731   -0.369758    1.257628 C.3      1 SUBUNIT    0.0000
     10 H19          -2.443150    3.118326    1.086009 H        1 SUBUNIT    0.0000
     11 H21          -0.960304    2.560380    1.480326 H        1 SUBUNIT    0.0000
     12 H23          -2.293559    1.790625    2.024335 H        1 SUBUNIT    0.0000
     13 H25          -2.443150    3.118326   -1.086009 H        1 SUBUNIT    0.0000
     14 H27          -2.293559    1.790625   -2.024335 H        1 SUBUNIT    0.0000
     15 H29          -0.960304    2.560380   -1.480326 H        1 SUBUNIT    0.0000
     16 H31           0.079829   -1.251602   -1.086009 H        1 SUBUNIT    0.0000
     17 H33           0.338057    0.311553   -1.480326 H        1 SUBUNIT    0.0000
     18 H35          -0.995197   -0.458202   -2.024335 H        1 SUBUNIT    0.0000
     19 H37           0.079829   -1.251602    1.086009 H        1 SUBUNIT    0.0000
     20 H39          -0.995197   -0.458202    2.024334 H        1 SUBUNIT    0.0000
     21 H41           0.338057    0.311553    1.480326 H        1 SUBUNIT    0.0000
     22 H43          -4.421984   -0.309114   -1.086009 H        1 SUBUNIT    0.0000
     23 H45          -3.197365   -1.314323   -1.480326 H        1 SUBUNIT    0.0000
     24 H47          -3.197365    0.225186   -2.024334 H        1 SUBUNIT    0.0000
     25 H49          -4.421984   -0.309114    1.086009 H        1 SUBUNIT    0.0000
     26 H51          -3.197365    0.225186    2.024334 H        1 SUBUNIT    0.0000
     27 H53          -3.197365   -1.314323    1.480326 H        1 SUBUNIT    0.0000
@<TRIPOS>BOND
     1    1    2 1
     2    2    3 1
     3    3    1 1
     4    1    4 1
     5    1    5 1
     6    2    6 1
     7    2    7 1
     8    3    8 1
     9    3    9 1
    10    4   10 1
    11    4   11 1
    12    4   12 1
    13    5   13 1
    14    5   14 1
    15    5   15 1
    16    6   16 1
    17    6   17 1
    18    6   18 1
    19    7   19 1
    20    7   20 1
    21    7   21 1
    22    8   22 1
    23    8   23 1
    24    8   24 1
    25    9   25 1
    26    9   26 1
    27    9   27 1
@<SCITEGIC>ATOM_PROPERTY
Formal Charge
SciTegic.value.StringValue
1 0
2 0
3 0
4 0
5 0
6 0
7 0
8 0
9 0
10 0
11 0
12 0
13 0
14 0
15 0
16 0
17 0
18 0
19 0
20 0
21 0
22 0
23 0
24 0
25 0
26 0
27 0

@<SCITEGIC>ATOM_PROPERTY
pdb_tempFactor
SciTegic.value.DoubleValue
1 0.00
2 0.00
3 0.00
4 0.00
5 0.00
6 0.00
7 0.00
8 0.00
9 0.00
10 0.00
11 0.00
12 0.00
13 0.00
14 0.00
15 0.00
16 0.00
17 0.00
18 0.00
19 0.00
20 0.00
21 0.00
22 0.00
23 0.00
24 0.00
25 0.00
26 0.00
27 0.00

@<SCITEGIC>ATOM_PROPERTY
pdb_occupancy
SciTegic.value.DoubleValue
1 1.00
2 1.00
3 1.00
4 1.00
5 1.00
6 1.00
7 1.00
8 1.00
9 1.00
10 1.00
11 1.00
12 1.00
13 1.00
14 1.00
15 1.00
16 1.00
17 1.00
18 1.00
19 1.00
20 1.00
21 1.00
22 1.00
23 1.00
24 1.00
25 1.00
26 1.00
27 1.00

