#	copyright 2023 drugdesign.org
#	Creation time:	2024-01-11T10:58:48Z

@<SCITEGIC>ROOT_PROPERTY
Ligand:MaximumNumberOfAtoms
SciTegic.value.IntegerValue
100

@<SCITEGIC>ROOT_PROPERTY
Ligand:HydrogenAtomsCountTowardsMaximum
SciTegic.value.BooleanValue
FALSE

@<TRIPOS>MOLECULE
2_bond_rotate_all.sd
   31    33     0 0 0
SMALL
USER_CHARGES


@<TRIPOS>ATOM
      1 C1            0.000000    0.000000   -2.977000 C.2      1 SUBUNIT    0.0268
      2 N2           -0.702300    1.216400   -2.977000 N.2      1 SUBUNIT   -0.2639
      3 C3           -2.106800    1.216400   -2.977000 C.2      1 SUBUNIT    0.0393
      4 C4           -2.809000    0.000000   -2.977000 C.2      1 SUBUNIT    0.0557
      5 C5           -2.106800   -1.216400   -2.977000 C.2      1 SUBUNIT   -0.0466
      6 C6           -0.702200   -1.216400   -2.977000 C.2      1 SUBUNIT   -0.0430
      7 H7            1.103400    0.000000   -2.977000 H        1 SUBUNIT    0.0840
      8 H8           -2.658500    2.172000   -2.977000 H        1 SUBUNIT    0.0848
      9 H9           -2.658500   -2.171900   -2.977000 H        1 SUBUNIT    0.0632
     10 H10          -0.150500   -2.172000   -2.977000 H        1 SUBUNIT    0.0639
     11 C11          -4.137600   -0.014300   -2.977000 C.2      1 SUBUNIT    0.2487
     12 N12          -4.827800    1.175100   -2.977000 N.am     1 SUBUNIT   -0.2816
     13 O13          -4.735000   -1.082200   -2.977000 O.2      1 SUBUNIT   -0.2715
     14 H14          -4.228700    1.999300   -2.977000 H        1 SUBUNIT    0.1560
     15 C15          -6.141700    1.163700   -2.977000 C.2      1 SUBUNIT    0.0291
     16 C16          -6.843600   -0.052900   -2.977000 C.2      1 SUBUNIT   -0.0552
     17 C17          -8.248800    2.379500   -2.977000 C.2      1 SUBUNIT   -0.0749
     18 C18          -6.844200    2.379900   -2.977000 C.2      1 SUBUNIT   -0.0444
     19 H19          -6.291500   -1.008400   -2.977000 H        1 SUBUNIT    0.0602
     20 H20          -8.800800    3.334800   -2.977000 H        1 SUBUNIT    0.0583
     21 H21          -6.292800    3.335600   -2.977000 H        1 SUBUNIT    0.0639
     22 C22         -10.303900    1.192100   -2.977000 C.2      1 SUBUNIT   -0.0756
     23 C23         -11.005800   -0.024500   -2.977000 C.2      1 SUBUNIT   -0.0517
     24 C24         -10.303300   -1.240600   -2.977000 C.2      1 SUBUNIT    0.0138
     25 C25          -8.898700   -1.240200   -2.977000 C.2      1 SUBUNIT   -0.0624
     26 C26          -8.196700   -0.023600   -2.977000 C.3      1 SUBUNIT    0.0480
     27 C27          -8.899300    1.192600   -2.977000 C.3      1 SUBUNIT    0.0452
     28 H28         -10.855800    2.147600   -2.977000 H        1 SUBUNIT    0.0583
     29 H29         -12.109300   -0.024700   -2.977000 H        1 SUBUNIT    0.0631
     30 Br30        -11.267100   -2.911000   -2.977000 Br       1 SUBUNIT   -0.0512
     31 H31          -8.346800   -2.195600   -2.977000 H        1 SUBUNIT    0.0594
@<TRIPOS>BOND
     1    1    2 2
     2    1    6 1
     3    1    7 1
     4    2    3 1
     5    3    4 2
     6    3    8 1
     7    4    5 1
     8    4   11 1
     9    5    6 2
    10    5    9 1
    11    6   10 1
    12   11   12 1
    13   11   13 2
    14   12   14 1
    15   12   15 1
    16   15   16 2
    17   15   18 1
    18   16   26 1
    19   16   19 1
    20   17   27 1
    21   17   18 2
    22   17   20 1
    23   18   21 1
    24   22   23 2
    25   22   27 1
    26   22   28 1
    27   23   24 1
    28   23   29 1
    29   24   25 2
    30   24   30 1
    31   25   26 1
    32   25   31 1
    33   26   27 1
@<SCITEGIC>ATOM_PROPERTY
Formal Charge
SciTegic.value.StringValue
1 0
2 0
3 0
4 0
5 0
6 0
7 0
8 0
9 0
10 0
11 0
12 0
13 0
14 0
15 0
16 0
17 0
18 0
19 0
20 0
21 0
22 0
23 0
24 0
25 0
26 0
27 0
28 0
29 0
30 0
31 0

@<SCITEGIC>ATOM_PROPERTY
pdb_tempFactor
SciTegic.value.DoubleValue
1 0.00
2 0.00
3 0.00
4 0.00
5 0.00
6 0.00
7 0.00
8 0.00
9 0.00
10 0.00
11 0.00
12 0.00
13 0.00
14 0.00
15 0.00
16 0.00
17 0.00
18 0.00
19 0.00
20 0.00
21 0.00
22 0.00
23 0.00
24 0.00
25 0.00
26 0.00
27 0.00
28 0.00
29 0.00
30 0.00
31 0.00

@<SCITEGIC>ATOM_PROPERTY
pdb_occupancy
SciTegic.value.DoubleValue
1 1.00
2 1.00
3 1.00
4 1.00
5 1.00
6 1.00
7 1.00
8 1.00
9 1.00
10 1.00
11 1.00
12 1.00
13 1.00
14 1.00
15 1.00
16 1.00
17 1.00
18 1.00
19 1.00
20 1.00
21 1.00
22 1.00
23 1.00
24 1.00
25 1.00
26 1.00
27 1.00
28 1.00
29 1.00
30 1.00
31 1.00

#	copyright 2023 drugdesign.org
#	Creation time:	2024-01-11T10:58:48Z

@<SCITEGIC>ROOT_PROPERTY
Ligand:MaximumNumberOfAtoms
SciTegic.value.IntegerValue
100

@<SCITEGIC>ROOT_PROPERTY
Ligand:HydrogenAtomsCountTowardsMaximum
SciTegic.value.BooleanValue
FALSE

@<TRIPOS>MOLECULE
2_bond_rotate_all.sd
   31    33     0 0 0
SMALL
USER_CHARGES


@<TRIPOS>ATOM
      1 C1            0.000000    0.000000   -2.977000 C.2      1 SUBUNIT    0.0268
      2 N2           -0.702300    1.216400   -2.977000 N.2      1 SUBUNIT   -0.2639
      3 C3           -2.106800    1.216400   -2.977000 C.2      1 SUBUNIT    0.0393
      4 C4           -2.809000    0.000000   -2.977000 C.2      1 SUBUNIT    0.0557
      5 C5           -2.106800   -1.216400   -2.977000 C.2      1 SUBUNIT   -0.0466
      6 C6           -0.702200   -1.216400   -2.977000 C.2      1 SUBUNIT   -0.0430
      7 H7            1.103400    0.000000   -2.977000 H        1 SUBUNIT    0.0840
      8 H8           -2.658500    2.172000   -2.977000 H        1 SUBUNIT    0.0848
      9 H9           -2.658500   -2.171900   -2.977000 H        1 SUBUNIT    0.0632
     10 H10          -0.150500   -2.172000   -2.977000 H        1 SUBUNIT    0.0639
     11 C11          -4.137600   -0.014300   -2.977000 C.2      1 SUBUNIT    0.2487
     12 N12          -4.827800    1.175100   -2.977000 N.am     1 SUBUNIT   -0.2816
     13 O13          -4.735000   -1.082200   -2.977000 O.2      1 SUBUNIT   -0.2715
     14 H14          -4.228700    1.999300   -2.977000 H        1 SUBUNIT    0.1560
     15 C15          -6.141700    1.163700   -2.977000 C.2      1 SUBUNIT    0.0291
     16 C16          -6.845000    0.109200   -2.371800 C.2      1 SUBUNIT   -0.0552
     17 C17          -8.247400    2.214100   -3.594000 C.2      1 SUBUNIT   -0.0749
     18 C18          -6.842800    2.216100   -3.588100 C.2      1 SUBUNIT   -0.0444
     19 H19          -6.294100   -0.717600   -1.891700 H        1 SUBUNIT    0.0602
     20 H20          -8.798200    3.040800   -4.074000 H        1 SUBUNIT    0.0583
     21 H21          -6.290300    3.044500   -4.063600 H        1 SUBUNIT    0.0639
     22 C22         -10.303800    1.183500   -3.009300 C.2      1 SUBUNIT   -0.0756
     23 C23         -11.007200    0.129000   -2.404000 C.2      1 SUBUNIT   -0.0517
     24 C24         -10.306000   -0.923400   -1.792900 C.2      1 SUBUNIT    0.0138
     25 C25          -8.901500   -0.921300   -1.787100 C.2      1 SUBUNIT   -0.0624
     26 C26          -8.198100    0.133000   -2.392300 C.3      1 SUBUNIT    0.0480
     27 C27          -8.899300    1.185500   -3.003400 C.3      1 SUBUNIT    0.0452
     28 H28         -10.854600    2.010300   -3.489400 H        1 SUBUNIT    0.0583
     29 H29         -12.110600    0.127600   -2.408700 H        1 SUBUNIT    0.0631
     30 Br30        -11.271800   -2.371100   -0.962000 Br       1 SUBUNIT   -0.0512
     31 H31          -8.350700   -1.748100   -1.307000 H        1 SUBUNIT    0.0594
@<TRIPOS>BOND
     1    1    2 2
     2    1    6 1
     3    1    7 1
     4    2    3 1
     5    3    4 2
     6    3    8 1
     7    4    5 1
     8    4   11 1
     9    5    6 2
    10    5    9 1
    11    6   10 1
    12   11   12 1
    13   11   13 2
    14   12   14 1
    15   12   15 1
    16   15   16 2
    17   15   18 1
    18   16   26 1
    19   16   19 1
    20   17   27 1
    21   17   18 2
    22   17   20 1
    23   18   21 1
    24   22   23 2
    25   22   27 1
    26   22   28 1
    27   23   24 1
    28   23   29 1
    29   24   25 2
    30   24   30 1
    31   25   26 1
    32   25   31 1
    33   26   27 1
@<SCITEGIC>ATOM_PROPERTY
Formal Charge
SciTegic.value.StringValue
1 0
2 0
3 0
4 0
5 0
6 0
7 0
8 0
9 0
10 0
11 0
12 0
13 0
14 0
15 0
16 0
17 0
18 0
19 0
20 0
21 0
22 0
23 0
24 0
25 0
26 0
27 0
28 0
29 0
30 0
31 0

@<SCITEGIC>ATOM_PROPERTY
pdb_tempFactor
SciTegic.value.DoubleValue
1 0.00
2 0.00
3 0.00
4 0.00
5 0.00
6 0.00
7 0.00
8 0.00
9 0.00
10 0.00
11 0.00
12 0.00
13 0.00
14 0.00
15 0.00
16 0.00
17 0.00
18 0.00
19 0.00
20 0.00
21 0.00
22 0.00
23 0.00
24 0.00
25 0.00
26 0.00
27 0.00
28 0.00
29 0.00
30 0.00
31 0.00

@<SCITEGIC>ATOM_PROPERTY
pdb_occupancy
SciTegic.value.DoubleValue
1 1.00
2 1.00
3 1.00
4 1.00
5 1.00
6 1.00
7 1.00
8 1.00
9 1.00
10 1.00
11 1.00
12 1.00
13 1.00
14 1.00
15 1.00
16 1.00
17 1.00
18 1.00
19 1.00
20 1.00
21 1.00
22 1.00
23 1.00
24 1.00
25 1.00
26 1.00
27 1.00
28 1.00
29 1.00
30 1.00
31 1.00

#	copyright 2023 drugdesign.org
#	Creation time:	2024-01-11T10:58:48Z

@<SCITEGIC>ROOT_PROPERTY
Ligand:MaximumNumberOfAtoms
SciTegic.value.IntegerValue
100

@<SCITEGIC>ROOT_PROPERTY
Ligand:HydrogenAtomsCountTowardsMaximum
SciTegic.value.BooleanValue
FALSE

@<TRIPOS>MOLECULE
2_bond_rotate_all.sd
   31    33     0 0 0
SMALL
USER_CHARGES


@<TRIPOS>ATOM
      1 C1            0.000000    0.000000   -2.977000 C.2      1 SUBUNIT    0.0268
      2 N2           -0.702300    1.216400   -2.977000 N.2      1 SUBUNIT   -0.2639
      3 C3           -2.106800    1.216400   -2.977000 C.2      1 SUBUNIT    0.0393
      4 C4           -2.809000    0.000000   -2.977000 C.2      1 SUBUNIT    0.0557
      5 C5           -2.106800   -1.216400   -2.977000 C.2      1 SUBUNIT   -0.0466
      6 C6           -0.702200   -1.216400   -2.977000 C.2      1 SUBUNIT   -0.0430
      7 H7            1.103400    0.000000   -2.977000 H        1 SUBUNIT    0.0840
      8 H8           -2.658500    2.172000   -2.977000 H        1 SUBUNIT    0.0848
      9 H9           -2.658500   -2.171900   -2.977000 H        1 SUBUNIT    0.0632
     10 H10          -0.150500   -2.172000   -2.977000 H        1 SUBUNIT    0.0639
     11 C11          -4.137600   -0.014300   -2.977000 C.2      1 SUBUNIT    0.2487
     12 N12          -4.827800    1.175100   -2.977000 N.am     1 SUBUNIT   -0.2816
     13 O13          -4.735000   -1.082200   -2.977000 O.2      1 SUBUNIT   -0.2715
     14 H14          -4.228700    1.999300   -2.977000 H        1 SUBUNIT    0.1560
     15 C15          -6.141700    1.163700   -2.977000 C.2      1 SUBUNIT    0.0291
     16 C16          -6.848900    0.552300   -1.928700 C.2      1 SUBUNIT   -0.0552
     17 C17          -8.243500    1.762500   -4.045700 C.2      1 SUBUNIT   -0.0749
     18 C18          -6.838900    1.768800   -4.035500 C.2      1 SUBUNIT   -0.0444
     19 H19          -6.301000    0.076900   -1.097100 H        1 SUBUNIT    0.0602
     20 H20          -8.791300    2.237800   -4.877200 H        1 SUBUNIT    0.0583
     21 H21          -6.283400    2.249100   -4.859000 H        1 SUBUNIT    0.0639
     22 C22         -10.303600    1.159800   -3.032900 C.2      1 SUBUNIT   -0.0756
     23 C23         -11.010800    0.548500   -1.984600 C.2      1 SUBUNIT   -0.0517
     24 C24         -10.313500   -0.056600   -0.926200 C.2      1 SUBUNIT    0.0138
     25 C25          -8.909000   -0.050300   -0.916000 C.2      1 SUBUNIT   -0.0624
     26 C26          -8.201800    0.561000   -1.964200 C.3      1 SUBUNIT    0.0480
     27 C27          -8.899100    1.166200   -3.022800 C.3      1 SUBUNIT    0.0452
     28 H28         -10.851400    1.635200   -3.864500 H        1 SUBUNIT    0.0583
     29 H29         -12.114200    0.543600   -1.992700 H        1 SUBUNIT    0.0631
     30 Br30        -11.284600   -0.896000    0.513100 Br       1 SUBUNIT   -0.0512
     31 H31          -8.361300   -0.525700   -0.084500 H        1 SUBUNIT    0.0594
@<TRIPOS>BOND
     1    1    2 2
     2    1    6 1
     3    1    7 1
     4    2    3 1
     5    3    4 2
     6    3    8 1
     7    4    5 1
     8    4   11 1
     9    5    6 2
    10    5    9 1
    11    6   10 1
    12   11   12 1
    13   11   13 2
    14   12   14 1
    15   12   15 1
    16   15   16 2
    17   15   18 1
    18   16   26 1
    19   16   19 1
    20   17   27 1
    21   17   18 2
    22   17   20 1
    23   18   21 1
    24   22   23 2
    25   22   27 1
    26   22   28 1
    27   23   24 1
    28   23   29 1
    29   24   25 2
    30   24   30 1
    31   25   26 1
    32   25   31 1
    33   26   27 1
@<SCITEGIC>ATOM_PROPERTY
Formal Charge
SciTegic.value.StringValue
1 0
2 0
3 0
4 0
5 0
6 0
7 0
8 0
9 0
10 0
11 0
12 0
13 0
14 0
15 0
16 0
17 0
18 0
19 0
20 0
21 0
22 0
23 0
24 0
25 0
26 0
27 0
28 0
29 0
30 0
31 0

@<SCITEGIC>ATOM_PROPERTY
pdb_tempFactor
SciTegic.value.DoubleValue
1 0.00
2 0.00
3 0.00
4 0.00
5 0.00
6 0.00
7 0.00
8 0.00
9 0.00
10 0.00
11 0.00
12 0.00
13 0.00
14 0.00
15 0.00
16 0.00
17 0.00
18 0.00
19 0.00
20 0.00
21 0.00
22 0.00
23 0.00
24 0.00
25 0.00
26 0.00
27 0.00
28 0.00
29 0.00
30 0.00
31 0.00

@<SCITEGIC>ATOM_PROPERTY
pdb_occupancy
SciTegic.value.DoubleValue
1 1.00
2 1.00
3 1.00
4 1.00
5 1.00
6 1.00
7 1.00
8 1.00
9 1.00
10 1.00
11 1.00
12 1.00
13 1.00
14 1.00
15 1.00
16 1.00
17 1.00
18 1.00
19 1.00
20 1.00
21 1.00
22 1.00
23 1.00
24 1.00
25 1.00
26 1.00
27 1.00
28 1.00
29 1.00
30 1.00
31 1.00

#	copyright 2023 drugdesign.org
#	Creation time:	2024-01-11T10:58:48Z

@<SCITEGIC>ROOT_PROPERTY
Ligand:MaximumNumberOfAtoms
SciTegic.value.IntegerValue
100

@<SCITEGIC>ROOT_PROPERTY
Ligand:HydrogenAtomsCountTowardsMaximum
SciTegic.value.BooleanValue
FALSE

@<TRIPOS>MOLECULE
2_bond_rotate_all.sd
   31    33     0 0 0
SMALL
USER_CHARGES


@<TRIPOS>ATOM
      1 C1            0.000000    0.000000   -2.977000 C.2      1 SUBUNIT    0.0268
      2 N2           -0.702300    1.216400   -2.977000 N.2      1 SUBUNIT   -0.2639
      3 C3           -2.106800    1.216400   -2.977000 C.2      1 SUBUNIT    0.0393
      4 C4           -2.809000    0.000000   -2.977000 C.2      1 SUBUNIT    0.0557
      5 C5           -2.106800   -1.216400   -2.977000 C.2      1 SUBUNIT   -0.0466
      6 C6           -0.702200   -1.216400   -2.977000 C.2      1 SUBUNIT   -0.0430
      7 H7            1.103400    0.000000   -2.977000 H        1 SUBUNIT    0.0840
      8 H8           -2.658500    2.172000   -2.977000 H        1 SUBUNIT    0.0848
      9 H9           -2.658500   -2.171900   -2.977000 H        1 SUBUNIT    0.0632
     10 H10          -0.150500   -2.172000   -2.977000 H        1 SUBUNIT    0.0639
     11 C11          -4.137600   -0.014300   -2.977000 C.2      1 SUBUNIT    0.2487
     12 N12          -4.827800    1.175100   -2.977000 N.am     1 SUBUNIT   -0.2816
     13 O13          -4.735000   -1.082200   -2.977000 O.2      1 SUBUNIT   -0.2715
     14 H14          -4.228700    1.999300   -2.977000 H        1 SUBUNIT    0.1560
     15 C15          -6.141700    1.163700   -2.977000 C.2      1 SUBUNIT    0.0291
     16 C16          -6.854100    1.157500   -1.766500 C.2      1 SUBUNIT   -0.0552
     17 C17          -8.238100    1.145500   -4.211000 C.2      1 SUBUNIT   -0.0749
     18 C18          -6.833600    1.157700   -4.199200 C.2      1 SUBUNIT   -0.0444
     19 H19          -6.310400    1.162200   -0.806300 H        1 SUBUNIT    0.0602
     20 H20          -8.781800    1.140800   -5.171100 H        1 SUBUNIT    0.0583
     21 H21          -6.273900    1.162500   -5.150200 H        1 SUBUNIT    0.0639
     22 C22         -10.303300    1.127600   -3.041600 C.2      1 SUBUNIT   -0.0756
     23 C23         -11.015800    1.121400   -1.831100 C.2      1 SUBUNIT   -0.0517
     24 C24         -10.323800    1.127400   -0.608900 C.2      1 SUBUNIT    0.0138
     25 C25          -8.919400    1.139600   -0.597200 C.2      1 SUBUNIT   -0.0624
     26 C26          -8.206900    1.145700   -1.807600 C.3      1 SUBUNIT    0.0480
     27 C27          -8.898900    1.139700   -3.029800 C.3      1 SUBUNIT    0.0452
     28 H28         -10.846900    1.122800   -4.001700 H        1 SUBUNIT    0.0583
     29 H29         -12.119200    1.111800   -1.840500 H        1 SUBUNIT    0.0631
     30 Br30        -11.302000    1.118900    1.053000 Br       1 SUBUNIT   -0.0512
     31 H31          -8.375700    1.144300    0.363000 H        1 SUBUNIT    0.0594
@<TRIPOS>BOND
     1    1    2 2
     2    1    6 1
     3    1    7 1
     4    2    3 1
     5    3    4 2
     6    3    8 1
     7    4    5 1
     8    4   11 1
     9    5    6 2
    10    5    9 1
    11    6   10 1
    12   11   12 1
    13   11   13 2
    14   12   14 1
    15   12   15 1
    16   15   16 2
    17   15   18 1
    18   16   26 1
    19   16   19 1
    20   17   27 1
    21   17   18 2
    22   17   20 1
    23   18   21 1
    24   22   23 2
    25   22   27 1
    26   22   28 1
    27   23   24 1
    28   23   29 1
    29   24   25 2
    30   24   30 1
    31   25   26 1
    32   25   31 1
    33   26   27 1
@<SCITEGIC>ATOM_PROPERTY
Formal Charge
SciTegic.value.StringValue
1 0
2 0
3 0
4 0
5 0
6 0
7 0
8 0
9 0
10 0
11 0
12 0
13 0
14 0
15 0
16 0
17 0
18 0
19 0
20 0
21 0
22 0
23 0
24 0
25 0
26 0
27 0
28 0
29 0
30 0
31 0

@<SCITEGIC>ATOM_PROPERTY
pdb_tempFactor
SciTegic.value.DoubleValue
1 0.00
2 0.00
3 0.00
4 0.00
5 0.00
6 0.00
7 0.00
8 0.00
9 0.00
10 0.00
11 0.00
12 0.00
13 0.00
14 0.00
15 0.00
16 0.00
17 0.00
18 0.00
19 0.00
20 0.00
21 0.00
22 0.00
23 0.00
24 0.00
25 0.00
26 0.00
27 0.00
28 0.00
29 0.00
30 0.00
31 0.00

@<SCITEGIC>ATOM_PROPERTY
pdb_occupancy
SciTegic.value.DoubleValue
1 1.00
2 1.00
3 1.00
4 1.00
5 1.00
6 1.00
7 1.00
8 1.00
9 1.00
10 1.00
11 1.00
12 1.00
13 1.00
14 1.00
15 1.00
16 1.00
17 1.00
18 1.00
19 1.00
20 1.00
21 1.00
22 1.00
23 1.00
24 1.00
25 1.00
26 1.00
27 1.00
28 1.00
29 1.00
30 1.00
31 1.00

#	copyright 2023 drugdesign.org
#	Creation time:	2024-01-11T10:58:48Z

@<SCITEGIC>ROOT_PROPERTY
Ligand:MaximumNumberOfAtoms
SciTegic.value.IntegerValue
100

@<SCITEGIC>ROOT_PROPERTY
Ligand:HydrogenAtomsCountTowardsMaximum
SciTegic.value.BooleanValue
FALSE

@<TRIPOS>MOLECULE
2_bond_rotate_all.sd
   31    33     0 0 0
SMALL
USER_CHARGES


@<TRIPOS>ATOM
      1 C1            0.000000    0.000000   -2.977000 C.2      1 SUBUNIT    0.0268
      2 N2           -0.702300    1.216400   -2.977000 N.2      1 SUBUNIT   -0.2639
      3 C3           -2.106800    1.216400   -2.977000 C.2      1 SUBUNIT    0.0393
      4 C4           -2.809000    0.000000   -2.977000 C.2      1 SUBUNIT    0.0557
      5 C5           -2.106800   -1.216400   -2.977000 C.2      1 SUBUNIT   -0.0466
      6 C6           -0.702200   -1.216400   -2.977000 C.2      1 SUBUNIT   -0.0430
      7 H7            1.103400    0.000000   -2.977000 H        1 SUBUNIT    0.0840
      8 H8           -2.658500    2.172000   -2.977000 H        1 SUBUNIT    0.0848
      9 H9           -2.658500   -2.171900   -2.977000 H        1 SUBUNIT    0.0632
     10 H10          -0.150500   -2.172000   -2.977000 H        1 SUBUNIT    0.0639
     11 C11          -4.137600   -0.014300   -2.977000 C.2      1 SUBUNIT    0.2487
     12 N12          -4.827800    1.175100   -2.977000 N.am     1 SUBUNIT   -0.2816
     13 O13          -4.735000   -1.082200   -2.977000 O.2      1 SUBUNIT   -0.2715
     14 H14          -4.228700    1.999300   -2.977000 H        1 SUBUNIT    0.1560
     15 C15          -6.141700    1.163700   -2.977000 C.2      1 SUBUNIT    0.0291
     16 C16          -6.859400    1.762700   -1.928700 C.2      1 SUBUNIT   -0.0552
     17 C17          -8.232800    0.528500   -4.045700 C.2      1 SUBUNIT   -0.0749
     18 C18          -6.828300    0.546600   -4.035500 C.2      1 SUBUNIT   -0.0444
     19 H19          -6.319800    2.247500   -1.097100 H        1 SUBUNIT    0.0602
     20 H20          -8.772200    0.043700   -4.877200 H        1 SUBUNIT    0.0583
     21 H21          -6.264500    0.076000   -4.859000 H        1 SUBUNIT    0.0639
     22 C22         -10.303000    1.095300   -3.032900 C.2      1 SUBUNIT   -0.0756
     23 C23         -11.020700    1.694300   -1.984600 C.2      1 SUBUNIT   -0.0517
     24 C24         -10.334100    2.311400   -0.926200 C.2      1 SUBUNIT    0.0138
     25 C25          -8.929700    2.329400   -0.916000 C.2      1 SUBUNIT   -0.0624
     26 C26          -8.211900    1.730400   -1.964200 C.3      1 SUBUNIT    0.0480
     27 C27          -8.898700    1.113300   -3.022800 C.3      1 SUBUNIT    0.0452
     28 H28         -10.842500    0.610500   -3.864500 H        1 SUBUNIT    0.0583
     29 H29         -12.124100    1.680100   -1.992700 H        1 SUBUNIT    0.0631
     30 Br30        -11.319500    3.133800    0.513100 Br       1 SUBUNIT   -0.0512
     31 H31          -8.390200    2.814200   -0.084500 H        1 SUBUNIT    0.0594
@<TRIPOS>BOND
     1    1    2 2
     2    1    6 1
     3    1    7 1
     4    2    3 1
     5    3    4 2
     6    3    8 1
     7    4    5 1
     8    4   11 1
     9    5    6 2
    10    5    9 1
    11    6   10 1
    12   11   12 1
    13   11   13 2
    14   12   14 1
    15   12   15 1
    16   15   16 2
    17   15   18 1
    18   16   26 1
    19   16   19 1
    20   17   27 1
    21   17   18 2
    22   17   20 1
    23   18   21 1
    24   22   23 2
    25   22   27 1
    26   22   28 1
    27   23   24 1
    28   23   29 1
    29   24   25 2
    30   24   30 1
    31   25   26 1
    32   25   31 1
    33   26   27 1
@<SCITEGIC>ATOM_PROPERTY
Formal Charge
SciTegic.value.StringValue
1 0
2 0
3 0
4 0
5 0
6 0
7 0
8 0
9 0
10 0
11 0
12 0
13 0
14 0
15 0
16 0
17 0
18 0
19 0
20 0
21 0
22 0
23 0
24 0
25 0
26 0
27 0
28 0
29 0
30 0
31 0

@<SCITEGIC>ATOM_PROPERTY
pdb_tempFactor
SciTegic.value.DoubleValue
1 0.00
2 0.00
3 0.00
4 0.00
5 0.00
6 0.00
7 0.00
8 0.00
9 0.00
10 0.00
11 0.00
12 0.00
13 0.00
14 0.00
15 0.00
16 0.00
17 0.00
18 0.00
19 0.00
20 0.00
21 0.00
22 0.00
23 0.00
24 0.00
25 0.00
26 0.00
27 0.00
28 0.00
29 0.00
30 0.00
31 0.00

@<SCITEGIC>ATOM_PROPERTY
pdb_occupancy
SciTegic.value.DoubleValue
1 1.00
2 1.00
3 1.00
4 1.00
5 1.00
6 1.00
7 1.00
8 1.00
9 1.00
10 1.00
11 1.00
12 1.00
13 1.00
14 1.00
15 1.00
16 1.00
17 1.00
18 1.00
19 1.00
20 1.00
21 1.00
22 1.00
23 1.00
24 1.00
25 1.00
26 1.00
27 1.00
28 1.00
29 1.00
30 1.00
31 1.00

#	copyright 2023 drugdesign.org
#	Creation time:	2024-01-11T10:58:48Z

@<SCITEGIC>ROOT_PROPERTY
Ligand:MaximumNumberOfAtoms
SciTegic.value.IntegerValue
100

@<SCITEGIC>ROOT_PROPERTY
Ligand:HydrogenAtomsCountTowardsMaximum
SciTegic.value.BooleanValue
FALSE

@<TRIPOS>MOLECULE
2_bond_rotate_all.sd
   31    33     0 0 0
SMALL
USER_CHARGES


@<TRIPOS>ATOM
      1 C1            0.000000    0.000000   -2.977000 C.2      1 SUBUNIT    0.0268
      2 N2           -0.702300    1.216400   -2.977000 N.2      1 SUBUNIT   -0.2639
      3 C3           -2.106800    1.216400   -2.977000 C.2      1 SUBUNIT    0.0393
      4 C4           -2.809000    0.000000   -2.977000 C.2      1 SUBUNIT    0.0557
      5 C5           -2.106800   -1.216400   -2.977000 C.2      1 SUBUNIT   -0.0466
      6 C6           -0.702200   -1.216400   -2.977000 C.2      1 SUBUNIT   -0.0430
      7 H7            1.103400    0.000000   -2.977000 H        1 SUBUNIT    0.0840
      8 H8           -2.658500    2.172000   -2.977000 H        1 SUBUNIT    0.0848
      9 H9           -2.658500   -2.171900   -2.977000 H        1 SUBUNIT    0.0632
     10 H10          -0.150500   -2.172000   -2.977000 H        1 SUBUNIT    0.0639
     11 C11          -4.137600   -0.014300   -2.977000 C.2      1 SUBUNIT    0.2487
     12 N12          -4.827800    1.175100   -2.977000 N.am     1 SUBUNIT   -0.2816
     13 O13          -4.735000   -1.082200   -2.977000 O.2      1 SUBUNIT   -0.2715
     14 H14          -4.228700    1.999300   -2.977000 H        1 SUBUNIT    0.1560
     15 C15          -6.141700    1.163700   -2.977000 C.2      1 SUBUNIT    0.0291
     16 C16          -6.863200    2.205700   -2.371800 C.2      1 SUBUNIT   -0.0552
     17 C17          -8.228800    0.076800   -3.594000 C.2      1 SUBUNIT   -0.0749
     18 C18          -6.824400    0.099200   -3.588100 C.2      1 SUBUNIT   -0.0444
     19 H19          -6.326700    3.042000   -1.891700 H        1 SUBUNIT    0.0602
     20 H20          -8.765300   -0.759300   -4.074000 H        1 SUBUNIT    0.0583
     21 H21          -6.257600   -0.719500   -4.063600 H        1 SUBUNIT    0.0639
     22 C22         -10.302800    1.071600   -3.009300 C.2      1 SUBUNIT   -0.0756
     23 C23         -11.024400    2.113700   -2.404000 C.2      1 SUBUNIT   -0.0517
     24 C24         -10.341600    3.178100   -1.793000 C.2      1 SUBUNIT    0.0138
     25 C25          -8.937200    3.200500   -1.787100 C.2      1 SUBUNIT   -0.0624
     26 C26          -8.215600    2.158500   -2.392300 C.3      1 SUBUNIT    0.0480
     27 C27          -8.898500    1.094000   -3.003400 C.3      1 SUBUNIT    0.0452
     28 H28         -10.839200    0.235400   -3.489400 H        1 SUBUNIT    0.0583
     29 H29         -12.127700    2.096000   -2.408700 H        1 SUBUNIT    0.0631
     30 Br30        -11.332300    4.608900   -0.962000 Br       1 SUBUNIT   -0.0512
     31 H31          -8.400800    4.036700   -1.307000 H        1 SUBUNIT    0.0594
@<TRIPOS>BOND
     1    1    2 2
     2    1    6 1
     3    1    7 1
     4    2    3 1
     5    3    4 2
     6    3    8 1
     7    4    5 1
     8    4   11 1
     9    5    6 2
    10    5    9 1
    11    6   10 1
    12   11   12 1
    13   11   13 2
    14   12   14 1
    15   12   15 1
    16   15   16 2
    17   15   18 1
    18   16   26 1
    19   16   19 1
    20   17   27 1
    21   17   18 2
    22   17   20 1
    23   18   21 1
    24   22   23 2
    25   22   27 1
    26   22   28 1
    27   23   24 1
    28   23   29 1
    29   24   25 2
    30   24   30 1
    31   25   26 1
    32   25   31 1
    33   26   27 1
@<SCITEGIC>ATOM_PROPERTY
Formal Charge
SciTegic.value.StringValue
1 0
2 0
3 0
4 0
5 0
6 0
7 0
8 0
9 0
10 0
11 0
12 0
13 0
14 0
15 0
16 0
17 0
18 0
19 0
20 0
21 0
22 0
23 0
24 0
25 0
26 0
27 0
28 0
29 0
30 0
31 0

@<SCITEGIC>ATOM_PROPERTY
pdb_tempFactor
SciTegic.value.DoubleValue
1 0.00
2 0.00
3 0.00
4 0.00
5 0.00
6 0.00
7 0.00
8 0.00
9 0.00
10 0.00
11 0.00
12 0.00
13 0.00
14 0.00
15 0.00
16 0.00
17 0.00
18 0.00
19 0.00
20 0.00
21 0.00
22 0.00
23 0.00
24 0.00
25 0.00
26 0.00
27 0.00
28 0.00
29 0.00
30 0.00
31 0.00

@<SCITEGIC>ATOM_PROPERTY
pdb_occupancy
SciTegic.value.DoubleValue
1 1.00
2 1.00
3 1.00
4 1.00
5 1.00
6 1.00
7 1.00
8 1.00
9 1.00
10 1.00
11 1.00
12 1.00
13 1.00
14 1.00
15 1.00
16 1.00
17 1.00
18 1.00
19 1.00
20 1.00
21 1.00
22 1.00
23 1.00
24 1.00
25 1.00
26 1.00
27 1.00
28 1.00
29 1.00
30 1.00
31 1.00

#	copyright 2023 drugdesign.org
#	Creation time:	2024-01-11T10:58:48Z

@<SCITEGIC>ROOT_PROPERTY
Ligand:MaximumNumberOfAtoms
SciTegic.value.IntegerValue
100

@<SCITEGIC>ROOT_PROPERTY
Ligand:HydrogenAtomsCountTowardsMaximum
SciTegic.value.BooleanValue
FALSE

@<TRIPOS>MOLECULE
2_bond_rotate_all.sd
   31    33     0 0 0
SMALL
USER_CHARGES


@<TRIPOS>ATOM
      1 C1            0.000000    0.000000   -2.977000 C.2      1 SUBUNIT    0.0268
      2 N2           -0.702300    1.216400   -2.977000 N.2      1 SUBUNIT   -0.2639
      3 C3           -2.106800    1.216400   -2.977000 C.2      1 SUBUNIT    0.0393
      4 C4           -2.809000    0.000000   -2.977000 C.2      1 SUBUNIT    0.0557
      5 C5           -2.106800   -1.216400   -2.977000 C.2      1 SUBUNIT   -0.0466
      6 C6           -0.702200   -1.216400   -2.977000 C.2      1 SUBUNIT   -0.0430
      7 H7            1.103400    0.000000   -2.977000 H        1 SUBUNIT    0.0840
      8 H8           -2.658500    2.172000   -2.977000 H        1 SUBUNIT    0.0848
      9 H9           -2.658500   -2.171900   -2.977000 H        1 SUBUNIT    0.0632
     10 H10          -0.150500   -2.172000   -2.977000 H        1 SUBUNIT    0.0639
     11 C11          -4.137600   -0.014300   -2.977000 C.2      1 SUBUNIT    0.2487
     12 N12          -4.827800    1.175100   -2.977000 N.am     1 SUBUNIT   -0.2816
     13 O13          -4.735000   -1.082200   -2.977000 O.2      1 SUBUNIT   -0.2715
     14 H14          -4.228700    1.999300   -2.977000 H        1 SUBUNIT    0.1560
     15 C15          -6.141700    1.163700   -2.977000 C.2      1 SUBUNIT    0.0291
     16 C16          -6.864600    2.367900   -2.977000 C.2      1 SUBUNIT   -0.0552
     17 C17          -8.227400   -0.088500   -2.977000 C.2      1 SUBUNIT   -0.0749
     18 C18          -6.823000   -0.064500   -2.977000 C.2      1 SUBUNIT   -0.0444
     19 H19          -6.329200    3.332800   -2.977000 H        1 SUBUNIT    0.0602
     20 H20          -8.762700   -1.053300   -2.977000 H        1 SUBUNIT    0.0583
     21 H21          -6.255100   -1.010600   -2.977000 H        1 SUBUNIT    0.0639
     22 C22         -10.302800    1.063000   -2.977000 C.2      1 SUBUNIT   -0.0756
     23 C23         -11.025700    2.267200   -2.977000 C.2      1 SUBUNIT   -0.0517
     24 C24         -10.344300    3.495400   -2.977000 C.2      1 SUBUNIT    0.0138
     25 C25          -8.940000    3.519300   -2.977000 C.2      1 SUBUNIT   -0.0624
     26 C26          -8.217000    2.315100   -2.977000 C.3      1 SUBUNIT    0.0480
     27 C27          -8.898400    1.086900   -2.977000 C.3      1 SUBUNIT    0.0452
     28 H28         -10.838100    0.098100   -2.977000 H        1 SUBUNIT    0.0583
     29 H29         -12.129000    2.248300   -2.977000 H        1 SUBUNIT    0.0631
     30 Br30        -11.337000    5.148800   -2.977000 Br       1 SUBUNIT   -0.0512
     31 H31          -8.404700    4.484100   -2.977000 H        1 SUBUNIT    0.0594
@<TRIPOS>BOND
     1    1    2 2
     2    1    6 1
     3    1    7 1
     4    2    3 1
     5    3    4 2
     6    3    8 1
     7    4    5 1
     8    4   11 1
     9    5    6 2
    10    5    9 1
    11    6   10 1
    12   11   12 1
    13   11   13 2
    14   12   14 1
    15   12   15 1
    16   15   16 2
    17   15   18 1
    18   16   26 1
    19   16   19 1
    20   17   27 1
    21   17   18 2
    22   17   20 1
    23   18   21 1
    24   22   23 2
    25   22   27 1
    26   22   28 1
    27   23   24 1
    28   23   29 1
    29   24   25 2
    30   24   30 1
    31   25   26 1
    32   25   31 1
    33   26   27 1
@<SCITEGIC>ATOM_PROPERTY
Formal Charge
SciTegic.value.StringValue
1 0
2 0
3 0
4 0
5 0
6 0
7 0
8 0
9 0
10 0
11 0
12 0
13 0
14 0
15 0
16 0
17 0
18 0
19 0
20 0
21 0
22 0
23 0
24 0
25 0
26 0
27 0
28 0
29 0
30 0
31 0

@<SCITEGIC>ATOM_PROPERTY
pdb_tempFactor
SciTegic.value.DoubleValue
1 0.00
2 0.00
3 0.00
4 0.00
5 0.00
6 0.00
7 0.00
8 0.00
9 0.00
10 0.00
11 0.00
12 0.00
13 0.00
14 0.00
15 0.00
16 0.00
17 0.00
18 0.00
19 0.00
20 0.00
21 0.00
22 0.00
23 0.00
24 0.00
25 0.00
26 0.00
27 0.00
28 0.00
29 0.00
30 0.00
31 0.00

@<SCITEGIC>ATOM_PROPERTY
pdb_occupancy
SciTegic.value.DoubleValue
1 1.00
2 1.00
3 1.00
4 1.00
5 1.00
6 1.00
7 1.00
8 1.00
9 1.00
10 1.00
11 1.00
12 1.00
13 1.00
14 1.00
15 1.00
16 1.00
17 1.00
18 1.00
19 1.00
20 1.00
21 1.00
22 1.00
23 1.00
24 1.00
25 1.00
26 1.00
27 1.00
28 1.00
29 1.00
30 1.00
31 1.00

#	copyright 2023 drugdesign.org
#	Creation time:	2024-01-11T10:58:48Z

@<SCITEGIC>ROOT_PROPERTY
Ligand:MaximumNumberOfAtoms
SciTegic.value.IntegerValue
100

@<SCITEGIC>ROOT_PROPERTY
Ligand:HydrogenAtomsCountTowardsMaximum
SciTegic.value.BooleanValue
FALSE

@<TRIPOS>MOLECULE
2_bond_rotate_all.sd
   31    33     0 0 0
SMALL
USER_CHARGES


@<TRIPOS>ATOM
      1 C1            0.000000    0.000000   -2.977000 C.2      1 SUBUNIT    0.0268
      2 N2           -0.702300    1.216400   -2.977000 N.2      1 SUBUNIT   -0.2639
      3 C3           -2.106800    1.216400   -2.977000 C.2      1 SUBUNIT    0.0393
      4 C4           -2.809000    0.000000   -2.977000 C.2      1 SUBUNIT    0.0557
      5 C5           -2.106800   -1.216400   -2.977000 C.2      1 SUBUNIT   -0.0466
      6 C6           -0.702200   -1.216400   -2.977000 C.2      1 SUBUNIT   -0.0430
      7 H7            1.103400    0.000000   -2.977000 H        1 SUBUNIT    0.0840
      8 H8           -2.658500    2.172000   -2.977000 H        1 SUBUNIT    0.0848
      9 H9           -2.658500   -2.171900   -2.977000 H        1 SUBUNIT    0.0632
     10 H10          -0.150500   -2.172000   -2.977000 H        1 SUBUNIT    0.0639
     11 C11          -4.137600   -0.014300   -2.977000 C.2      1 SUBUNIT    0.2487
     12 N12          -4.827800    1.175100   -2.977000 N.am     1 SUBUNIT   -0.2816
     13 O13          -4.735000   -1.082200   -2.977000 O.2      1 SUBUNIT   -0.2715
     14 H14          -4.228700    1.999300   -2.977000 H        1 SUBUNIT    0.1560
     15 C15          -6.141700    1.163700   -2.977000 C.2      1 SUBUNIT    0.0291
     16 C16          -6.863200    2.205700   -3.582200 C.2      1 SUBUNIT   -0.0552
     17 C17          -8.228800    0.076800   -2.360000 C.2      1 SUBUNIT   -0.0749
     18 C18          -6.824400    0.099200   -2.365900 C.2      1 SUBUNIT   -0.0444
     19 H19          -6.326700    3.042000   -4.062300 H        1 SUBUNIT    0.0602
     20 H20          -8.765300   -0.759300   -1.879900 H        1 SUBUNIT    0.0583
     21 H21          -6.257600   -0.719500   -1.890400 H        1 SUBUNIT    0.0639
     22 C22         -10.302800    1.071600   -2.944700 C.2      1 SUBUNIT   -0.0756
     23 C23         -11.024400    2.113700   -3.549900 C.2      1 SUBUNIT   -0.0517
     24 C24         -10.341600    3.178100   -4.161000 C.2      1 SUBUNIT    0.0138
     25 C25          -8.937200    3.200500   -4.166900 C.2      1 SUBUNIT   -0.0624
     26 C26          -8.215600    2.158500   -3.561700 C.3      1 SUBUNIT    0.0480
     27 C27          -8.898500    1.094000   -2.950600 C.3      1 SUBUNIT    0.0452
     28 H28         -10.839200    0.235400   -2.464600 H        1 SUBUNIT    0.0583
     29 H29         -12.127700    2.096000   -3.545300 H        1 SUBUNIT    0.0631
     30 Br30        -11.332300    4.608900   -4.992000 Br       1 SUBUNIT   -0.0512
     31 H31          -8.400800    4.036700   -4.647000 H        1 SUBUNIT    0.0594
@<TRIPOS>BOND
     1    1    2 2
     2    1    6 1
     3    1    7 1
     4    2    3 1
     5    3    4 2
     6    3    8 1
     7    4    5 1
     8    4   11 1
     9    5    6 2
    10    5    9 1
    11    6   10 1
    12   11   12 1
    13   11   13 2
    14   12   14 1
    15   12   15 1
    16   15   16 2
    17   15   18 1
    18   16   26 1
    19   16   19 1
    20   17   27 1
    21   17   18 2
    22   17   20 1
    23   18   21 1
    24   22   23 2
    25   22   27 1
    26   22   28 1
    27   23   24 1
    28   23   29 1
    29   24   25 2
    30   24   30 1
    31   25   26 1
    32   25   31 1
    33   26   27 1
@<SCITEGIC>ATOM_PROPERTY
Formal Charge
SciTegic.value.StringValue
1 0
2 0
3 0
4 0
5 0
6 0
7 0
8 0
9 0
10 0
11 0
12 0
13 0
14 0
15 0
16 0
17 0
18 0
19 0
20 0
21 0
22 0
23 0
24 0
25 0
26 0
27 0
28 0
29 0
30 0
31 0

@<SCITEGIC>ATOM_PROPERTY
pdb_tempFactor
SciTegic.value.DoubleValue
1 0.00
2 0.00
3 0.00
4 0.00
5 0.00
6 0.00
7 0.00
8 0.00
9 0.00
10 0.00
11 0.00
12 0.00
13 0.00
14 0.00
15 0.00
16 0.00
17 0.00
18 0.00
19 0.00
20 0.00
21 0.00
22 0.00
23 0.00
24 0.00
25 0.00
26 0.00
27 0.00
28 0.00
29 0.00
30 0.00
31 0.00

@<SCITEGIC>ATOM_PROPERTY
pdb_occupancy
SciTegic.value.DoubleValue
1 1.00
2 1.00
3 1.00
4 1.00
5 1.00
6 1.00
7 1.00
8 1.00
9 1.00
10 1.00
11 1.00
12 1.00
13 1.00
14 1.00
15 1.00
16 1.00
17 1.00
18 1.00
19 1.00
20 1.00
21 1.00
22 1.00
23 1.00
24 1.00
25 1.00
26 1.00
27 1.00
28 1.00
29 1.00
30 1.00
31 1.00

#	copyright 2023 drugdesign.org
#	Creation time:	2024-01-11T10:58:48Z

@<SCITEGIC>ROOT_PROPERTY
Ligand:MaximumNumberOfAtoms
SciTegic.value.IntegerValue
100

@<SCITEGIC>ROOT_PROPERTY
Ligand:HydrogenAtomsCountTowardsMaximum
SciTegic.value.BooleanValue
FALSE

@<TRIPOS>MOLECULE
2_bond_rotate_all.sd
   31    33     0 0 0
SMALL
USER_CHARGES


@<TRIPOS>ATOM
      1 C1            0.000000    0.000000   -2.977000 C.2      1 SUBUNIT    0.0268
      2 N2           -0.702300    1.216400   -2.977000 N.2      1 SUBUNIT   -0.2639
      3 C3           -2.106800    1.216400   -2.977000 C.2      1 SUBUNIT    0.0393
      4 C4           -2.809000    0.000000   -2.977000 C.2      1 SUBUNIT    0.0557
      5 C5           -2.106800   -1.216400   -2.977000 C.2      1 SUBUNIT   -0.0466
      6 C6           -0.702200   -1.216400   -2.977000 C.2      1 SUBUNIT   -0.0430
      7 H7            1.103400    0.000000   -2.977000 H        1 SUBUNIT    0.0840
      8 H8           -2.658500    2.172000   -2.977000 H        1 SUBUNIT    0.0848
      9 H9           -2.658500   -2.171900   -2.977000 H        1 SUBUNIT    0.0632
     10 H10          -0.150500   -2.172000   -2.977000 H        1 SUBUNIT    0.0639
     11 C11          -4.137600   -0.014300   -2.977000 C.2      1 SUBUNIT    0.2487
     12 N12          -4.827800    1.175100   -2.977000 N.am     1 SUBUNIT   -0.2816
     13 O13          -4.735000   -1.082200   -2.977000 O.2      1 SUBUNIT   -0.2715
     14 H14          -4.228700    1.999300   -2.977000 H        1 SUBUNIT    0.1560
     15 C15          -6.141700    1.163700   -2.977000 C.2      1 SUBUNIT    0.0291
     16 C16          -6.859400    1.762700   -4.025300 C.2      1 SUBUNIT   -0.0552
     17 C17          -8.232800    0.528500   -1.908300 C.2      1 SUBUNIT   -0.0749
     18 C18          -6.828300    0.546600   -1.918500 C.2      1 SUBUNIT   -0.0444
     19 H19          -6.319800    2.247500   -4.856800 H        1 SUBUNIT    0.0602
     20 H20          -8.772200    0.043700   -1.076800 H        1 SUBUNIT    0.0583
     21 H21          -6.264500    0.076000   -1.095000 H        1 SUBUNIT    0.0639
     22 C22         -10.303000    1.095300   -2.921100 C.2      1 SUBUNIT   -0.0756
     23 C23         -11.020700    1.694300   -3.969400 C.2      1 SUBUNIT   -0.0517
     24 C24         -10.334100    2.311400   -5.027800 C.2      1 SUBUNIT    0.0138
     25 C25          -8.929700    2.329400   -5.038000 C.2      1 SUBUNIT   -0.0624
     26 C26          -8.211900    1.730400   -3.989700 C.3      1 SUBUNIT    0.0480
     27 C27          -8.898700    1.113300   -2.931200 C.3      1 SUBUNIT    0.0452
     28 H28         -10.842500    0.610500   -2.089500 H        1 SUBUNIT    0.0583
     29 H29         -12.124100    1.680100   -3.961300 H        1 SUBUNIT    0.0631
     30 Br30        -11.319500    3.133800   -6.467100 Br       1 SUBUNIT   -0.0512
     31 H31          -8.390200    2.814200   -5.869500 H        1 SUBUNIT    0.0594
@<TRIPOS>BOND
     1    1    2 2
     2    1    6 1
     3    1    7 1
     4    2    3 1
     5    3    4 2
     6    3    8 1
     7    4    5 1
     8    4   11 1
     9    5    6 2
    10    5    9 1
    11    6   10 1
    12   11   12 1
    13   11   13 2
    14   12   14 1
    15   12   15 1
    16   15   16 2
    17   15   18 1
    18   16   26 1
    19   16   19 1
    20   17   27 1
    21   17   18 2
    22   17   20 1
    23   18   21 1
    24   22   23 2
    25   22   27 1
    26   22   28 1
    27   23   24 1
    28   23   29 1
    29   24   25 2
    30   24   30 1
    31   25   26 1
    32   25   31 1
    33   26   27 1
@<SCITEGIC>ATOM_PROPERTY
Formal Charge
SciTegic.value.StringValue
1 0
2 0
3 0
4 0
5 0
6 0
7 0
8 0
9 0
10 0
11 0
12 0
13 0
14 0
15 0
16 0
17 0
18 0
19 0
20 0
21 0
22 0
23 0
24 0
25 0
26 0
27 0
28 0
29 0
30 0
31 0

@<SCITEGIC>ATOM_PROPERTY
pdb_tempFactor
SciTegic.value.DoubleValue
1 0.00
2 0.00
3 0.00
4 0.00
5 0.00
6 0.00
7 0.00
8 0.00
9 0.00
10 0.00
11 0.00
12 0.00
13 0.00
14 0.00
15 0.00
16 0.00
17 0.00
18 0.00
19 0.00
20 0.00
21 0.00
22 0.00
23 0.00
24 0.00
25 0.00
26 0.00
27 0.00
28 0.00
29 0.00
30 0.00
31 0.00

@<SCITEGIC>ATOM_PROPERTY
pdb_occupancy
SciTegic.value.DoubleValue
1 1.00
2 1.00
3 1.00
4 1.00
5 1.00
6 1.00
7 1.00
8 1.00
9 1.00
10 1.00
11 1.00
12 1.00
13 1.00
14 1.00
15 1.00
16 1.00
17 1.00
18 1.00
19 1.00
20 1.00
21 1.00
22 1.00
23 1.00
24 1.00
25 1.00
26 1.00
27 1.00
28 1.00
29 1.00
30 1.00
31 1.00

#	copyright 2023 drugdesign.org
#	Creation time:	2024-01-11T10:58:48Z

@<SCITEGIC>ROOT_PROPERTY
Ligand:MaximumNumberOfAtoms
SciTegic.value.IntegerValue
100

@<SCITEGIC>ROOT_PROPERTY
Ligand:HydrogenAtomsCountTowardsMaximum
SciTegic.value.BooleanValue
FALSE

@<TRIPOS>MOLECULE
2_bond_rotate_all.sd
   31    33     0 0 0
SMALL
USER_CHARGES


@<TRIPOS>ATOM
      1 C1            0.000000    0.000000   -2.977000 C.2      1 SUBUNIT    0.0268
      2 N2           -0.702300    1.216400   -2.977000 N.2      1 SUBUNIT   -0.2639
      3 C3           -2.106800    1.216400   -2.977000 C.2      1 SUBUNIT    0.0393
      4 C4           -2.809000    0.000000   -2.977000 C.2      1 SUBUNIT    0.0557
      5 C5           -2.106800   -1.216400   -2.977000 C.2      1 SUBUNIT   -0.0466
      6 C6           -0.702200   -1.216400   -2.977000 C.2      1 SUBUNIT   -0.0430
      7 H7            1.103400    0.000000   -2.977000 H        1 SUBUNIT    0.0840
      8 H8           -2.658500    2.172000   -2.977000 H        1 SUBUNIT    0.0848
      9 H9           -2.658500   -2.171900   -2.977000 H        1 SUBUNIT    0.0632
     10 H10          -0.150500   -2.172000   -2.977000 H        1 SUBUNIT    0.0639
     11 C11          -4.137600   -0.014300   -2.977000 C.2      1 SUBUNIT    0.2487
     12 N12          -4.827800    1.175100   -2.977000 N.am     1 SUBUNIT   -0.2816
     13 O13          -4.735000   -1.082200   -2.977000 O.2      1 SUBUNIT   -0.2715
     14 H14          -4.228700    1.999300   -2.977000 H        1 SUBUNIT    0.1560
     15 C15          -6.141700    1.163700   -2.977000 C.2      1 SUBUNIT    0.0291
     16 C16          -6.854100    1.157500   -4.187500 C.2      1 SUBUNIT   -0.0552
     17 C17          -8.238100    1.145500   -1.743000 C.2      1 SUBUNIT   -0.0749
     18 C18          -6.833600    1.157700   -1.754700 C.2      1 SUBUNIT   -0.0444
     19 H19          -6.310400    1.162200   -5.147600 H        1 SUBUNIT    0.0602
     20 H20          -8.781800    1.140800   -0.782900 H        1 SUBUNIT    0.0583
     21 H21          -6.273900    1.162500   -0.803800 H        1 SUBUNIT    0.0639
     22 C22         -10.303300    1.127600   -2.912400 C.2      1 SUBUNIT   -0.0756
     23 C23         -11.015800    1.121400   -4.122900 C.2      1 SUBUNIT   -0.0517
     24 C24         -10.323800    1.127400   -5.345100 C.2      1 SUBUNIT    0.0138
     25 C25          -8.919400    1.139600   -5.356800 C.2      1 SUBUNIT   -0.0624
     26 C26          -8.206900    1.145700   -4.146400 C.3      1 SUBUNIT    0.0480
     27 C27          -8.898900    1.139700   -2.924100 C.3      1 SUBUNIT    0.0452
     28 H28         -10.846900    1.122800   -1.952200 H        1 SUBUNIT    0.0583
     29 H29         -12.119200    1.111800   -4.113500 H        1 SUBUNIT    0.0631
     30 Br30        -11.302000    1.118900   -7.007000 Br       1 SUBUNIT   -0.0512
     31 H31          -8.375700    1.144300   -6.317000 H        1 SUBUNIT    0.0594
@<TRIPOS>BOND
     1    1    2 2
     2    1    6 1
     3    1    7 1
     4    2    3 1
     5    3    4 2
     6    3    8 1
     7    4    5 1
     8    4   11 1
     9    5    6 2
    10    5    9 1
    11    6   10 1
    12   11   12 1
    13   11   13 2
    14   12   14 1
    15   12   15 1
    16   15   16 2
    17   15   18 1
    18   16   26 1
    19   16   19 1
    20   17   27 1
    21   17   18 2
    22   17   20 1
    23   18   21 1
    24   22   23 2
    25   22   27 1
    26   22   28 1
    27   23   24 1
    28   23   29 1
    29   24   25 2
    30   24   30 1
    31   25   26 1
    32   25   31 1
    33   26   27 1
@<SCITEGIC>ATOM_PROPERTY
Formal Charge
SciTegic.value.StringValue
1 0
2 0
3 0
4 0
5 0
6 0
7 0
8 0
9 0
10 0
11 0
12 0
13 0
14 0
15 0
16 0
17 0
18 0
19 0
20 0
21 0
22 0
23 0
24 0
25 0
26 0
27 0
28 0
29 0
30 0
31 0

@<SCITEGIC>ATOM_PROPERTY
pdb_tempFactor
SciTegic.value.DoubleValue
1 0.00
2 0.00
3 0.00
4 0.00
5 0.00
6 0.00
7 0.00
8 0.00
9 0.00
10 0.00
11 0.00
12 0.00
13 0.00
14 0.00
15 0.00
16 0.00
17 0.00
18 0.00
19 0.00
20 0.00
21 0.00
22 0.00
23 0.00
24 0.00
25 0.00
26 0.00
27 0.00
28 0.00
29 0.00
30 0.00
31 0.00

@<SCITEGIC>ATOM_PROPERTY
pdb_occupancy
SciTegic.value.DoubleValue
1 1.00
2 1.00
3 1.00
4 1.00
5 1.00
6 1.00
7 1.00
8 1.00
9 1.00
10 1.00
11 1.00
12 1.00
13 1.00
14 1.00
15 1.00
16 1.00
17 1.00
18 1.00
19 1.00
20 1.00
21 1.00
22 1.00
23 1.00
24 1.00
25 1.00
26 1.00
27 1.00
28 1.00
29 1.00
30 1.00
31 1.00

#	copyright 2023 drugdesign.org
#	Creation time:	2024-01-11T10:58:48Z

@<SCITEGIC>ROOT_PROPERTY
Ligand:MaximumNumberOfAtoms
SciTegic.value.IntegerValue
100

@<SCITEGIC>ROOT_PROPERTY
Ligand:HydrogenAtomsCountTowardsMaximum
SciTegic.value.BooleanValue
FALSE

@<TRIPOS>MOLECULE
2_bond_rotate_all.sd
   31    33     0 0 0
SMALL
USER_CHARGES


@<TRIPOS>ATOM
      1 C1            0.000000    0.000000   -2.977000 C.2      1 SUBUNIT    0.0268
      2 N2           -0.702300    1.216400   -2.977000 N.2      1 SUBUNIT   -0.2639
      3 C3           -2.106800    1.216400   -2.977000 C.2      1 SUBUNIT    0.0393
      4 C4           -2.809000    0.000000   -2.977000 C.2      1 SUBUNIT    0.0557
      5 C5           -2.106800   -1.216400   -2.977000 C.2      1 SUBUNIT   -0.0466
      6 C6           -0.702200   -1.216400   -2.977000 C.2      1 SUBUNIT   -0.0430
      7 H7            1.103400    0.000000   -2.977000 H        1 SUBUNIT    0.0840
      8 H8           -2.658500    2.172000   -2.977000 H        1 SUBUNIT    0.0848
      9 H9           -2.658500   -2.171900   -2.977000 H        1 SUBUNIT    0.0632
     10 H10          -0.150500   -2.172000   -2.977000 H        1 SUBUNIT    0.0639
     11 C11          -4.137600   -0.014300   -2.977000 C.2      1 SUBUNIT    0.2487
     12 N12          -4.827800    1.175100   -2.977000 N.am     1 SUBUNIT   -0.2816
     13 O13          -4.735000   -1.082200   -2.977000 O.2      1 SUBUNIT   -0.2715
     14 H14          -4.228700    1.999300   -2.977000 H        1 SUBUNIT    0.1560
     15 C15          -6.141700    1.163700   -2.977000 C.2      1 SUBUNIT    0.0291
     16 C16          -6.848900    0.552300   -4.025300 C.2      1 SUBUNIT   -0.0552
     17 C17          -8.243500    1.762500   -1.908300 C.2      1 SUBUNIT   -0.0749
     18 C18          -6.838900    1.768800   -1.918500 C.2      1 SUBUNIT   -0.0444
     19 H19          -6.301000    0.076900   -4.856800 H        1 SUBUNIT    0.0602
     20 H20          -8.791300    2.237800   -1.076800 H        1 SUBUNIT    0.0583
     21 H21          -6.283400    2.249100   -1.095000 H        1 SUBUNIT    0.0639
     22 C22         -10.303600    1.159800   -2.921100 C.2      1 SUBUNIT   -0.0756
     23 C23         -11.010800    0.548500   -3.969400 C.2      1 SUBUNIT   -0.0517
     24 C24         -10.313500   -0.056600   -5.027800 C.2      1 SUBUNIT    0.0138
     25 C25          -8.909000   -0.050300   -5.038000 C.2      1 SUBUNIT   -0.0624
     26 C26          -8.201800    0.561000   -3.989800 C.3      1 SUBUNIT    0.0480
     27 C27          -8.899100    1.166200   -2.931200 C.3      1 SUBUNIT    0.0452
     28 H28         -10.851400    1.635200   -2.089500 H        1 SUBUNIT    0.0583
     29 H29         -12.114200    0.543600   -3.961300 H        1 SUBUNIT    0.0631
     30 Br30        -11.284600   -0.896000   -6.467100 Br       1 SUBUNIT   -0.0512
     31 H31          -8.361300   -0.525700   -5.869500 H        1 SUBUNIT    0.0594
@<TRIPOS>BOND
     1    1    2 2
     2    1    6 1
     3    1    7 1
     4    2    3 1
     5    3    4 2
     6    3    8 1
     7    4    5 1
     8    4   11 1
     9    5    6 2
    10    5    9 1
    11    6   10 1
    12   11   12 1
    13   11   13 2
    14   12   14 1
    15   12   15 1
    16   15   16 2
    17   15   18 1
    18   16   26 1
    19   16   19 1
    20   17   27 1
    21   17   18 2
    22   17   20 1
    23   18   21 1
    24   22   23 2
    25   22   27 1
    26   22   28 1
    27   23   24 1
    28   23   29 1
    29   24   25 2
    30   24   30 1
    31   25   26 1
    32   25   31 1
    33   26   27 1
@<SCITEGIC>ATOM_PROPERTY
Formal Charge
SciTegic.value.StringValue
1 0
2 0
3 0
4 0
5 0
6 0
7 0
8 0
9 0
10 0
11 0
12 0
13 0
14 0
15 0
16 0
17 0
18 0
19 0
20 0
21 0
22 0
23 0
24 0
25 0
26 0
27 0
28 0
29 0
30 0
31 0

@<SCITEGIC>ATOM_PROPERTY
pdb_tempFactor
SciTegic.value.DoubleValue
1 0.00
2 0.00
3 0.00
4 0.00
5 0.00
6 0.00
7 0.00
8 0.00
9 0.00
10 0.00
11 0.00
12 0.00
13 0.00
14 0.00
15 0.00
16 0.00
17 0.00
18 0.00
19 0.00
20 0.00
21 0.00
22 0.00
23 0.00
24 0.00
25 0.00
26 0.00
27 0.00
28 0.00
29 0.00
30 0.00
31 0.00

@<SCITEGIC>ATOM_PROPERTY
pdb_occupancy
SciTegic.value.DoubleValue
1 1.00
2 1.00
3 1.00
4 1.00
5 1.00
6 1.00
7 1.00
8 1.00
9 1.00
10 1.00
11 1.00
12 1.00
13 1.00
14 1.00
15 1.00
16 1.00
17 1.00
18 1.00
19 1.00
20 1.00
21 1.00
22 1.00
23 1.00
24 1.00
25 1.00
26 1.00
27 1.00
28 1.00
29 1.00
30 1.00
31 1.00

#	copyright 2023 drugdesign.org
#	Creation time:	2024-01-11T10:58:48Z

@<SCITEGIC>ROOT_PROPERTY
Ligand:MaximumNumberOfAtoms
SciTegic.value.IntegerValue
100

@<SCITEGIC>ROOT_PROPERTY
Ligand:HydrogenAtomsCountTowardsMaximum
SciTegic.value.BooleanValue
FALSE

@<TRIPOS>MOLECULE
2_bond_rotate_all.sd
   31    33     0 0 0
SMALL
USER_CHARGES


@<TRIPOS>ATOM
      1 C1            0.000000    0.000000   -2.977000 C.2      1 SUBUNIT    0.0268
      2 N2           -0.702300    1.216400   -2.977000 N.2      1 SUBUNIT   -0.2639
      3 C3           -2.106800    1.216400   -2.977000 C.2      1 SUBUNIT    0.0393
      4 C4           -2.809000    0.000000   -2.977000 C.2      1 SUBUNIT    0.0557
      5 C5           -2.106800   -1.216400   -2.977000 C.2      1 SUBUNIT   -0.0466
      6 C6           -0.702200   -1.216400   -2.977000 C.2      1 SUBUNIT   -0.0430
      7 H7            1.103400    0.000000   -2.977000 H        1 SUBUNIT    0.0840
      8 H8           -2.658500    2.172000   -2.977000 H        1 SUBUNIT    0.0848
      9 H9           -2.658500   -2.171900   -2.977000 H        1 SUBUNIT    0.0632
     10 H10          -0.150500   -2.172000   -2.977000 H        1 SUBUNIT    0.0639
     11 C11          -4.137600   -0.014300   -2.977000 C.2      1 SUBUNIT    0.2487
     12 N12          -4.827800    1.175100   -2.977000 N.am     1 SUBUNIT   -0.2816
     13 O13          -4.735000   -1.082200   -2.977000 O.2      1 SUBUNIT   -0.2715
     14 H14          -4.228700    1.999300   -2.977000 H        1 SUBUNIT    0.1560
     15 C15          -6.141700    1.163700   -2.977000 C.2      1 SUBUNIT    0.0291
     16 C16          -6.845000    0.109200   -3.582200 C.2      1 SUBUNIT   -0.0552
     17 C17          -8.247400    2.214100   -2.360000 C.2      1 SUBUNIT   -0.0749
     18 C18          -6.842800    2.216100   -2.365900 C.2      1 SUBUNIT   -0.0444
     19 H19          -6.294100   -0.717600   -4.062300 H        1 SUBUNIT    0.0602
     20 H20          -8.798200    3.040900   -1.879900 H        1 SUBUNIT    0.0583
     21 H21          -6.290300    3.044500   -1.890400 H        1 SUBUNIT    0.0639
     22 C22         -10.303800    1.183500   -2.944700 C.2      1 SUBUNIT   -0.0756
     23 C23         -11.007200    0.129100   -3.549900 C.2      1 SUBUNIT   -0.0517
     24 C24         -10.306000   -0.923400   -4.161000 C.2      1 SUBUNIT    0.0138
     25 C25          -8.901500   -0.921300   -4.166900 C.2      1 SUBUNIT   -0.0624
     26 C26          -8.198100    0.133000   -3.561700 C.3      1 SUBUNIT    0.0480
     27 C27          -8.899300    1.185500   -2.950600 C.3      1 SUBUNIT    0.0452
     28 H28         -10.854600    2.010300   -2.464600 H        1 SUBUNIT    0.0583
     29 H29         -12.110600    0.127600   -3.545300 H        1 SUBUNIT    0.0631
     30 Br30        -11.271800   -2.371100   -4.992000 Br       1 SUBUNIT   -0.0512
     31 H31          -8.350700   -1.748100   -4.647000 H        1 SUBUNIT    0.0594
@<TRIPOS>BOND
     1    1    2 2
     2    1    6 1
     3    1    7 1
     4    2    3 1
     5    3    4 2
     6    3    8 1
     7    4    5 1
     8    4   11 1
     9    5    6 2
    10    5    9 1
    11    6   10 1
    12   11   12 1
    13   11   13 2
    14   12   14 1
    15   12   15 1
    16   15   16 2
    17   15   18 1
    18   16   26 1
    19   16   19 1
    20   17   27 1
    21   17   18 2
    22   17   20 1
    23   18   21 1
    24   22   23 2
    25   22   27 1
    26   22   28 1
    27   23   24 1
    28   23   29 1
    29   24   25 2
    30   24   30 1
    31   25   26 1
    32   25   31 1
    33   26   27 1
@<SCITEGIC>ATOM_PROPERTY
Formal Charge
SciTegic.value.StringValue
1 0
2 0
3 0
4 0
5 0
6 0
7 0
8 0
9 0
10 0
11 0
12 0
13 0
14 0
15 0
16 0
17 0
18 0
19 0
20 0
21 0
22 0
23 0
24 0
25 0
26 0
27 0
28 0
29 0
30 0
31 0

@<SCITEGIC>ATOM_PROPERTY
pdb_tempFactor
SciTegic.value.DoubleValue
1 0.00
2 0.00
3 0.00
4 0.00
5 0.00
6 0.00
7 0.00
8 0.00
9 0.00
10 0.00
11 0.00
12 0.00
13 0.00
14 0.00
15 0.00
16 0.00
17 0.00
18 0.00
19 0.00
20 0.00
21 0.00
22 0.00
23 0.00
24 0.00
25 0.00
26 0.00
27 0.00
28 0.00
29 0.00
30 0.00
31 0.00

@<SCITEGIC>ATOM_PROPERTY
pdb_occupancy
SciTegic.value.DoubleValue
1 1.00
2 1.00
3 1.00
4 1.00
5 1.00
6 1.00
7 1.00
8 1.00
9 1.00
10 1.00
11 1.00
12 1.00
13 1.00
14 1.00
15 1.00
16 1.00
17 1.00
18 1.00
19 1.00
20 1.00
21 1.00
22 1.00
23 1.00
24 1.00
25 1.00
26 1.00
27 1.00
28 1.00
29 1.00
30 1.00
31 1.00

#	copyright 2023 drugdesign.org
#	Creation time:	2024-01-11T10:58:48Z

@<SCITEGIC>ROOT_PROPERTY
Ligand:MaximumNumberOfAtoms
SciTegic.value.IntegerValue
100

@<SCITEGIC>ROOT_PROPERTY
Ligand:HydrogenAtomsCountTowardsMaximum
SciTegic.value.BooleanValue
FALSE

@<TRIPOS>MOLECULE
2_bond_rotate_all.sd
   31    33     0 0 0
SMALL
USER_CHARGES


@<TRIPOS>ATOM
      1 C1            0.000000    0.000000   -2.977000 C.2      1 SUBUNIT    0.0268
      2 N2           -0.702300    1.216400   -2.977000 N.2      1 SUBUNIT   -0.2639
      3 C3           -2.106800    1.216400   -2.977000 C.2      1 SUBUNIT    0.0393
      4 C4           -2.809000    0.000000   -2.977000 C.2      1 SUBUNIT    0.0557
      5 C5           -2.106800   -1.216400   -2.977000 C.2      1 SUBUNIT   -0.0466
      6 C6           -0.702200   -1.216400   -2.977000 C.2      1 SUBUNIT   -0.0430
      7 H7            1.103400    0.000000   -2.977000 H        1 SUBUNIT    0.0840
      8 H8           -2.658500    2.172000   -2.977000 H        1 SUBUNIT    0.0848
      9 H9           -2.658500   -2.171900   -2.977000 H        1 SUBUNIT    0.0632
     10 H10          -0.150500   -2.172000   -2.977000 H        1 SUBUNIT    0.0639
     11 C11          -4.137600   -0.014300   -2.977000 C.2      1 SUBUNIT    0.2487
     12 N12          -4.826000    1.014700   -3.575300 N.am     1 SUBUNIT   -0.2816
     13 O13          -4.736500   -0.940000   -2.446300 O.2      1 SUBUNIT   -0.2715
     14 H14          -4.225800    1.729400   -3.984200 H        1 SUBUNIT    0.1560
     15 C15          -6.139900    1.003000   -3.576700 C.2      1 SUBUNIT    0.0291
     16 C16          -6.843600   -0.051700   -2.972200 C.2      1 SUBUNIT   -0.0552
     17 C17          -8.245300    2.052900   -4.195900 C.2      1 SUBUNIT   -0.0749
     18 C18          -6.840700    2.055200   -4.188500 C.2      1 SUBUNIT   -0.0444
     19 H19          -6.292900   -0.878300   -2.491600 H        1 SUBUNIT    0.0602
     20 H20          -8.795900    2.879400   -4.676500 H        1 SUBUNIT    0.0583
     21 H21          -6.287900    2.883800   -4.663400 H        1 SUBUNIT    0.0639
     22 C22         -10.302000    1.021600   -3.613300 C.2      1 SUBUNIT   -0.0756
     23 C23         -11.005700   -0.033000   -3.008800 C.2      1 SUBUNIT   -0.0517
     24 C24         -10.304900   -1.085200   -2.397000 C.2      1 SUBUNIT    0.0138
     25 C25          -8.900400   -1.082800   -2.389700 C.2      1 SUBUNIT   -0.0624
     26 C26          -8.196700   -0.028200   -2.994100 C.3      1 SUBUNIT    0.0480
     27 C27          -8.897500    1.024100   -3.606000 C.3      1 SUBUNIT    0.0452
     28 H28         -10.852600    1.848300   -4.094000 H        1 SUBUNIT    0.0583
     29 H29         -12.109200   -0.034800   -3.014600 H        1 SUBUNIT    0.0631
     30 Br30        -11.271200   -2.533200   -1.567000 Br       1 SUBUNIT   -0.0512
     31 H31          -8.349900   -1.909400   -1.909000 H        1 SUBUNIT    0.0594
@<TRIPOS>BOND
     1    1    2 2
     2    1    6 1
     3    1    7 1
     4    2    3 1
     5    3    4 2
     6    3    8 1
     7    4    5 1
     8    4   11 1
     9    5    6 2
    10    5    9 1
    11    6   10 1
    12   11   12 1
    13   11   13 2
    14   12   14 1
    15   12   15 1
    16   15   16 2
    17   15   18 1
    18   16   26 1
    19   16   19 1
    20   17   27 1
    21   17   18 2
    22   17   20 1
    23   18   21 1
    24   22   23 2
    25   22   27 1
    26   22   28 1
    27   23   24 1
    28   23   29 1
    29   24   25 2
    30   24   30 1
    31   25   26 1
    32   25   31 1
    33   26   27 1
@<SCITEGIC>ATOM_PROPERTY
Formal Charge
SciTegic.value.StringValue
1 0
2 0
3 0
4 0
5 0
6 0
7 0
8 0
9 0
10 0
11 0
12 0
13 0
14 0
15 0
16 0
17 0
18 0
19 0
20 0
21 0
22 0
23 0
24 0
25 0
26 0
27 0
28 0
29 0
30 0
31 0

@<SCITEGIC>ATOM_PROPERTY
pdb_tempFactor
SciTegic.value.DoubleValue
1 0.00
2 0.00
3 0.00
4 0.00
5 0.00
6 0.00
7 0.00
8 0.00
9 0.00
10 0.00
11 0.00
12 0.00
13 0.00
14 0.00
15 0.00
16 0.00
17 0.00
18 0.00
19 0.00
20 0.00
21 0.00
22 0.00
23 0.00
24 0.00
25 0.00
26 0.00
27 0.00
28 0.00
29 0.00
30 0.00
31 0.00

@<SCITEGIC>ATOM_PROPERTY
pdb_occupancy
SciTegic.value.DoubleValue
1 1.00
2 1.00
3 1.00
4 1.00
5 1.00
6 1.00
7 1.00
8 1.00
9 1.00
10 1.00
11 1.00
12 1.00
13 1.00
14 1.00
15 1.00
16 1.00
17 1.00
18 1.00
19 1.00
20 1.00
21 1.00
22 1.00
23 1.00
24 1.00
25 1.00
26 1.00
27 1.00
28 1.00
29 1.00
30 1.00
31 1.00

#	copyright 2023 drugdesign.org
#	Creation time:	2024-01-11T10:58:48Z

@<SCITEGIC>ROOT_PROPERTY
Ligand:MaximumNumberOfAtoms
SciTegic.value.IntegerValue
100

@<SCITEGIC>ROOT_PROPERTY
Ligand:HydrogenAtomsCountTowardsMaximum
SciTegic.value.BooleanValue
FALSE

@<TRIPOS>MOLECULE
2_bond_rotate_all.sd
   31    33     0 0 0
SMALL
USER_CHARGES


@<TRIPOS>ATOM
      1 C1            0.000000    0.000000   -2.977000 C.2      1 SUBUNIT    0.0268
      2 N2           -0.702300    1.216400   -2.977000 N.2      1 SUBUNIT   -0.2639
      3 C3           -2.106800    1.216400   -2.977000 C.2      1 SUBUNIT    0.0393
      4 C4           -2.809000    0.000000   -2.977000 C.2      1 SUBUNIT    0.0557
      5 C5           -2.106800   -1.216400   -2.977000 C.2      1 SUBUNIT   -0.0466
      6 C6           -0.702200   -1.216400   -2.977000 C.2      1 SUBUNIT   -0.0430
      7 H7            1.103400    0.000000   -2.977000 H        1 SUBUNIT    0.0840
      8 H8           -2.658500    2.172000   -2.977000 H        1 SUBUNIT    0.0848
      9 H9           -2.658500   -2.171900   -2.977000 H        1 SUBUNIT    0.0632
     10 H10          -0.150500   -2.172000   -2.977000 H        1 SUBUNIT    0.0639
     11 C11          -4.137600   -0.014300   -2.977000 C.2      1 SUBUNIT    0.2487
     12 N12          -4.826000    1.014700   -3.575300 N.am     1 SUBUNIT   -0.2816
     13 O13          -4.736500   -0.940000   -2.446300 O.2      1 SUBUNIT   -0.2715
     14 H14          -4.225800    1.729400   -3.984200 H        1 SUBUNIT    0.1560
     15 C15          -6.139900    1.003000   -3.576700 C.2      1 SUBUNIT    0.0291
     16 C16          -6.848100    0.391400   -2.529200 C.2      1 SUBUNIT   -0.0552
     17 C17          -8.240800    1.601200   -4.647600 C.2      1 SUBUNIT   -0.0749
     18 C18          -6.836300    1.607900   -4.635900 C.2      1 SUBUNIT   -0.0444
     19 H19          -6.300900   -0.083800   -1.697000 H        1 SUBUNIT    0.0602
     20 H20          -8.787900    2.076400   -5.479600 H        1 SUBUNIT    0.0583
     21 H21          -6.280000    2.088400   -5.458900 H        1 SUBUNIT    0.0639
     22 C22         -10.301800    0.998000   -3.637000 C.2      1 SUBUNIT   -0.0756
     23 C23         -11.009900    0.386400   -2.589400 C.2      1 SUBUNIT   -0.0517
     24 C24         -10.313600   -0.218500   -1.530200 C.2      1 SUBUNIT    0.0138
     25 C25          -8.909100   -0.211800   -1.518600 C.2      1 SUBUNIT   -0.0624
     26 C26          -8.200900    0.399800   -2.566100 C.3      1 SUBUNIT    0.0480
     27 C27          -8.897300    1.004700   -3.625300 C.3      1 SUBUNIT    0.0452
     28 H28         -10.848900    1.473200   -4.469100 H        1 SUBUNIT    0.0583
     29 H29         -12.113400    0.381200   -2.598600 H        1 SUBUNIT    0.0631
     30 Br30        -11.285900   -1.058200   -0.092000 Br       1 SUBUNIT   -0.0512
     31 H31          -8.362100   -0.687000   -0.686500 H        1 SUBUNIT    0.0594
@<TRIPOS>BOND
     1    1    2 2
     2    1    6 1
     3    1    7 1
     4    2    3 1
     5    3    4 2
     6    3    8 1
     7    4    5 1
     8    4   11 1
     9    5    6 2
    10    5    9 1
    11    6   10 1
    12   11   12 1
    13   11   13 2
    14   12   14 1
    15   12   15 1
    16   15   16 2
    17   15   18 1
    18   16   26 1
    19   16   19 1
    20   17   27 1
    21   17   18 2
    22   17   20 1
    23   18   21 1
    24   22   23 2
    25   22   27 1
    26   22   28 1
    27   23   24 1
    28   23   29 1
    29   24   25 2
    30   24   30 1
    31   25   26 1
    32   25   31 1
    33   26   27 1
@<SCITEGIC>ATOM_PROPERTY
Formal Charge
SciTegic.value.StringValue
1 0
2 0
3 0
4 0
5 0
6 0
7 0
8 0
9 0
10 0
11 0
12 0
13 0
14 0
15 0
16 0
17 0
18 0
19 0
20 0
21 0
22 0
23 0
24 0
25 0
26 0
27 0
28 0
29 0
30 0
31 0

@<SCITEGIC>ATOM_PROPERTY
pdb_tempFactor
SciTegic.value.DoubleValue
1 0.00
2 0.00
3 0.00
4 0.00
5 0.00
6 0.00
7 0.00
8 0.00
9 0.00
10 0.00
11 0.00
12 0.00
13 0.00
14 0.00
15 0.00
16 0.00
17 0.00
18 0.00
19 0.00
20 0.00
21 0.00
22 0.00
23 0.00
24 0.00
25 0.00
26 0.00
27 0.00
28 0.00
29 0.00
30 0.00
31 0.00

@<SCITEGIC>ATOM_PROPERTY
pdb_occupancy
SciTegic.value.DoubleValue
1 1.00
2 1.00
3 1.00
4 1.00
5 1.00
6 1.00
7 1.00
8 1.00
9 1.00
10 1.00
11 1.00
12 1.00
13 1.00
14 1.00
15 1.00
16 1.00
17 1.00
18 1.00
19 1.00
20 1.00
21 1.00
22 1.00
23 1.00
24 1.00
25 1.00
26 1.00
27 1.00
28 1.00
29 1.00
30 1.00
31 1.00

#	copyright 2023 drugdesign.org
#	Creation time:	2024-01-11T10:58:48Z

@<SCITEGIC>ROOT_PROPERTY
Ligand:MaximumNumberOfAtoms
SciTegic.value.IntegerValue
100

@<SCITEGIC>ROOT_PROPERTY
Ligand:HydrogenAtomsCountTowardsMaximum
SciTegic.value.BooleanValue
FALSE

@<TRIPOS>MOLECULE
2_bond_rotate_all.sd
   31    33     0 0 0
SMALL
USER_CHARGES


@<TRIPOS>ATOM
      1 C1            0.000000    0.000000   -2.977000 C.2      1 SUBUNIT    0.0268
      2 N2           -0.702300    1.216400   -2.977000 N.2      1 SUBUNIT   -0.2639
      3 C3           -2.106800    1.216400   -2.977000 C.2      1 SUBUNIT    0.0393
      4 C4           -2.809000    0.000000   -2.977000 C.2      1 SUBUNIT    0.0557
      5 C5           -2.106800   -1.216400   -2.977000 C.2      1 SUBUNIT   -0.0466
      6 C6           -0.702200   -1.216400   -2.977000 C.2      1 SUBUNIT   -0.0430
      7 H7            1.103400    0.000000   -2.977000 H        1 SUBUNIT    0.0840
      8 H8           -2.658500    2.172000   -2.977000 H        1 SUBUNIT    0.0848
      9 H9           -2.658500   -2.171900   -2.977000 H        1 SUBUNIT    0.0632
     10 H10          -0.150500   -2.172000   -2.977000 H        1 SUBUNIT    0.0639
     11 C11          -4.137600   -0.014300   -2.977000 C.2      1 SUBUNIT    0.2487
     12 N12          -4.826000    1.014700   -3.575300 N.am     1 SUBUNIT   -0.2816
     13 O13          -4.736500   -0.940000   -2.446300 O.2      1 SUBUNIT   -0.2715
     14 H14          -4.225800    1.729400   -3.984200 H        1 SUBUNIT    0.1560
     15 C15          -6.139900    1.003000   -3.576700 C.2      1 SUBUNIT    0.0291
     16 C16          -6.853600    0.996600   -2.367000 C.2      1 SUBUNIT   -0.0552
     17 C17          -8.235100    0.984200   -4.812900 C.2      1 SUBUNIT   -0.0749
     18 C18          -6.830600    0.996800   -4.799700 C.2      1 SUBUNIT   -0.0444
     19 H19          -6.310900    1.001400   -1.406200 H        1 SUBUNIT    0.0602
     20 H20          -8.777700    0.979400   -5.773600 H        1 SUBUNIT    0.0583
     21 H21          -6.270000    1.001800   -5.750000 H        1 SUBUNIT    0.0639
     22 C22         -10.301500    0.965700   -3.645600 C.2      1 SUBUNIT   -0.0756
     23 C23         -11.015200    0.959300   -2.435900 C.2      1 SUBUNIT   -0.0517
     24 C24         -10.324500    0.965500   -1.213000 C.2      1 SUBUNIT    0.0138
     25 C25          -8.920100    0.978100   -1.199800 C.2      1 SUBUNIT   -0.0624
     26 C26          -8.206300    0.984500   -2.409400 C.3      1 SUBUNIT    0.0480
     27 C27          -8.897100    0.978300   -3.632400 C.3      1 SUBUNIT    0.0452
     28 H28         -10.844100    0.960900   -4.606300 H        1 SUBUNIT    0.0583
     29 H29         -12.118600    0.949500   -2.446400 H        1 SUBUNIT    0.0631
     30 Br30        -11.304500    0.956700    0.448000 Br       1 SUBUNIT   -0.0512
     31 H31          -8.377500    0.982900   -0.239000 H        1 SUBUNIT    0.0594
@<TRIPOS>BOND
     1    1    2 2
     2    1    6 1
     3    1    7 1
     4    2    3 1
     5    3    4 2
     6    3    8 1
     7    4    5 1
     8    4   11 1
     9    5    6 2
    10    5    9 1
    11    6   10 1
    12   11   12 1
    13   11   13 2
    14   12   14 1
    15   12   15 1
    16   15   16 2
    17   15   18 1
    18   16   26 1
    19   16   19 1
    20   17   27 1
    21   17   18 2
    22   17   20 1
    23   18   21 1
    24   22   23 2
    25   22   27 1
    26   22   28 1
    27   23   24 1
    28   23   29 1
    29   24   25 2
    30   24   30 1
    31   25   26 1
    32   25   31 1
    33   26   27 1
@<SCITEGIC>ATOM_PROPERTY
Formal Charge
SciTegic.value.StringValue
1 0
2 0
3 0
4 0
5 0
6 0
7 0
8 0
9 0
10 0
11 0
12 0
13 0
14 0
15 0
16 0
17 0
18 0
19 0
20 0
21 0
22 0
23 0
24 0
25 0
26 0
27 0
28 0
29 0
30 0
31 0

@<SCITEGIC>ATOM_PROPERTY
pdb_tempFactor
SciTegic.value.DoubleValue
1 0.00
2 0.00
3 0.00
4 0.00
5 0.00
6 0.00
7 0.00
8 0.00
9 0.00
10 0.00
11 0.00
12 0.00
13 0.00
14 0.00
15 0.00
16 0.00
17 0.00
18 0.00
19 0.00
20 0.00
21 0.00
22 0.00
23 0.00
24 0.00
25 0.00
26 0.00
27 0.00
28 0.00
29 0.00
30 0.00
31 0.00

@<SCITEGIC>ATOM_PROPERTY
pdb_occupancy
SciTegic.value.DoubleValue
1 1.00
2 1.00
3 1.00
4 1.00
5 1.00
6 1.00
7 1.00
8 1.00
9 1.00
10 1.00
11 1.00
12 1.00
13 1.00
14 1.00
15 1.00
16 1.00
17 1.00
18 1.00
19 1.00
20 1.00
21 1.00
22 1.00
23 1.00
24 1.00
25 1.00
26 1.00
27 1.00
28 1.00
29 1.00
30 1.00
31 1.00

#	copyright 2023 drugdesign.org
#	Creation time:	2024-01-11T10:58:48Z

@<SCITEGIC>ROOT_PROPERTY
Ligand:MaximumNumberOfAtoms
SciTegic.value.IntegerValue
100

@<SCITEGIC>ROOT_PROPERTY
Ligand:HydrogenAtomsCountTowardsMaximum
SciTegic.value.BooleanValue
FALSE

@<TRIPOS>MOLECULE
2_bond_rotate_all.sd
   31    33     0 0 0
SMALL
USER_CHARGES


@<TRIPOS>ATOM
      1 C1            0.000000    0.000000   -2.977000 C.2      1 SUBUNIT    0.0268
      2 N2           -0.702300    1.216400   -2.977000 N.2      1 SUBUNIT   -0.2639
      3 C3           -2.106800    1.216400   -2.977000 C.2      1 SUBUNIT    0.0393
      4 C4           -2.809000    0.000000   -2.977000 C.2      1 SUBUNIT    0.0557
      5 C5           -2.106800   -1.216400   -2.977000 C.2      1 SUBUNIT   -0.0466
      6 C6           -0.702200   -1.216400   -2.977000 C.2      1 SUBUNIT   -0.0430
      7 H7            1.103400    0.000000   -2.977000 H        1 SUBUNIT    0.0840
      8 H8           -2.658500    2.172000   -2.977000 H        1 SUBUNIT    0.0848
      9 H9           -2.658500   -2.171900   -2.977000 H        1 SUBUNIT    0.0632
     10 H10          -0.150500   -2.172000   -2.977000 H        1 SUBUNIT    0.0639
     11 C11          -4.137600   -0.014300   -2.977000 C.2      1 SUBUNIT    0.2487
     12 N12          -4.826000    1.014700   -3.575300 N.am     1 SUBUNIT   -0.2816
     13 O13          -4.736500   -0.940000   -2.446300 O.2      1 SUBUNIT   -0.2715
     14 H14          -4.225800    1.729400   -3.984200 H        1 SUBUNIT    0.1560
     15 C15          -6.139900    1.003000   -3.576700 C.2      1 SUBUNIT    0.0291
     16 C16          -6.858900    1.601800   -2.529100 C.2      1 SUBUNIT   -0.0552
     17 C17          -8.229700    0.367200   -4.647600 C.2      1 SUBUNIT   -0.0749
     18 C18          -6.825300    0.385700   -4.635900 C.2      1 SUBUNIT   -0.0444
     19 H19          -6.320300    2.086700   -1.697000 H        1 SUBUNIT    0.0602
     20 H20          -8.768200   -0.117700   -5.479600 H        1 SUBUNIT    0.0583
     21 H21          -6.260500   -0.084700   -5.458900 H        1 SUBUNIT    0.0639
     22 C22         -10.301200    0.933400   -3.637000 C.2      1 SUBUNIT   -0.0756
     23 C23         -11.020200    1.532300   -2.589400 C.2      1 SUBUNIT   -0.0517
     24 C24         -10.334800    2.149500   -1.530200 C.2      1 SUBUNIT    0.0138
     25 C25          -8.930400    2.167900   -1.518600 C.2      1 SUBUNIT   -0.0624
     26 C26          -8.211400    1.569200   -2.566100 C.3      1 SUBUNIT    0.0480
     27 C27          -8.896900    0.951900   -3.625300 C.3      1 SUBUNIT    0.0452
     28 H28         -10.839700    0.448500   -4.469100 H        1 SUBUNIT    0.0583
     29 H29         -12.123500    1.517700   -2.598600 H        1 SUBUNIT    0.0631
     30 Br30        -11.322000    2.971700   -0.091900 Br       1 SUBUNIT   -0.0512
     31 H31          -8.392000    2.652900   -0.686500 H        1 SUBUNIT    0.0594
@<TRIPOS>BOND
     1    1    2 2
     2    1    6 1
     3    1    7 1
     4    2    3 1
     5    3    4 2
     6    3    8 1
     7    4    5 1
     8    4   11 1
     9    5    6 2
    10    5    9 1
    11    6   10 1
    12   11   12 1
    13   11   13 2
    14   12   14 1
    15   12   15 1
    16   15   16 2
    17   15   18 1
    18   16   26 1
    19   16   19 1
    20   17   27 1
    21   17   18 2
    22   17   20 1
    23   18   21 1
    24   22   23 2
    25   22   27 1
    26   22   28 1
    27   23   24 1
    28   23   29 1
    29   24   25 2
    30   24   30 1
    31   25   26 1
    32   25   31 1
    33   26   27 1
@<SCITEGIC>ATOM_PROPERTY
Formal Charge
SciTegic.value.StringValue
1 0
2 0
3 0
4 0
5 0
6 0
7 0
8 0
9 0
10 0
11 0
12 0
13 0
14 0
15 0
16 0
17 0
18 0
19 0
20 0
21 0
22 0
23 0
24 0
25 0
26 0
27 0
28 0
29 0
30 0
31 0

@<SCITEGIC>ATOM_PROPERTY
pdb_tempFactor
SciTegic.value.DoubleValue
1 0.00
2 0.00
3 0.00
4 0.00
5 0.00
6 0.00
7 0.00
8 0.00
9 0.00
10 0.00
11 0.00
12 0.00
13 0.00
14 0.00
15 0.00
16 0.00
17 0.00
18 0.00
19 0.00
20 0.00
21 0.00
22 0.00
23 0.00
24 0.00
25 0.00
26 0.00
27 0.00
28 0.00
29 0.00
30 0.00
31 0.00

@<SCITEGIC>ATOM_PROPERTY
pdb_occupancy
SciTegic.value.DoubleValue
1 1.00
2 1.00
3 1.00
4 1.00
5 1.00
6 1.00
7 1.00
8 1.00
9 1.00
10 1.00
11 1.00
12 1.00
13 1.00
14 1.00
15 1.00
16 1.00
17 1.00
18 1.00
19 1.00
20 1.00
21 1.00
22 1.00
23 1.00
24 1.00
25 1.00
26 1.00
27 1.00
28 1.00
29 1.00
30 1.00
31 1.00

#	copyright 2023 drugdesign.org
#	Creation time:	2024-01-11T10:58:48Z

@<SCITEGIC>ROOT_PROPERTY
Ligand:MaximumNumberOfAtoms
SciTegic.value.IntegerValue
100

@<SCITEGIC>ROOT_PROPERTY
Ligand:HydrogenAtomsCountTowardsMaximum
SciTegic.value.BooleanValue
FALSE

@<TRIPOS>MOLECULE
2_bond_rotate_all.sd
   31    33     0 0 0
SMALL
USER_CHARGES


@<TRIPOS>ATOM
      1 C1            0.000000    0.000000   -2.977000 C.2      1 SUBUNIT    0.0268
      2 N2           -0.702300    1.216400   -2.977000 N.2      1 SUBUNIT   -0.2639
      3 C3           -2.106800    1.216400   -2.977000 C.2      1 SUBUNIT    0.0393
      4 C4           -2.809000    0.000000   -2.977000 C.2      1 SUBUNIT    0.0557
      5 C5           -2.106800   -1.216400   -2.977000 C.2      1 SUBUNIT   -0.0466
      6 C6           -0.702200   -1.216400   -2.977000 C.2      1 SUBUNIT   -0.0430
      7 H7            1.103400    0.000000   -2.977000 H        1 SUBUNIT    0.0840
      8 H8           -2.658500    2.172000   -2.977000 H        1 SUBUNIT    0.0848
      9 H9           -2.658500   -2.171900   -2.977000 H        1 SUBUNIT    0.0632
     10 H10          -0.150500   -2.172000   -2.977000 H        1 SUBUNIT    0.0639
     11 C11          -4.137600   -0.014300   -2.977000 C.2      1 SUBUNIT    0.2487
     12 N12          -4.826000    1.014700   -3.575300 N.am     1 SUBUNIT   -0.2816
     13 O13          -4.736500   -0.940000   -2.446300 O.2      1 SUBUNIT   -0.2715
     14 H14          -4.225800    1.729400   -3.984200 H        1 SUBUNIT    0.1560
     15 C15          -6.139900    1.003000   -3.576700 C.2      1 SUBUNIT    0.0291
     16 C16          -6.862400    2.044800   -2.972200 C.2      1 SUBUNIT   -0.0552
     17 C17          -8.226200   -0.084400   -4.195900 C.2      1 SUBUNIT   -0.0749
     18 C18          -6.821800   -0.061700   -4.188500 C.2      1 SUBUNIT   -0.0444
     19 H19          -6.326600    2.881200   -2.491500 H        1 SUBUNIT    0.0602
     20 H20          -8.761900   -0.920700   -4.676500 H        1 SUBUNIT    0.0583
     21 H21          -6.254200   -0.880200   -4.663400 H        1 SUBUNIT    0.0639
     22 C22         -10.301000    0.909800   -3.613300 C.2      1 SUBUNIT   -0.0756
     23 C23         -11.023500    1.951700   -3.008800 C.2      1 SUBUNIT   -0.0517
     24 C24         -10.341700    3.016300   -2.397000 C.2      1 SUBUNIT    0.0138
     25 C25          -8.937300    3.039000   -2.389700 C.2      1 SUBUNIT   -0.0624
     26 C26          -8.214800    1.997200   -2.994100 C.3      1 SUBUNIT    0.0480
     27 C27          -8.896700    0.932500   -3.606000 C.3      1 SUBUNIT    0.0452
     28 H28         -10.836700    0.073400   -4.094000 H        1 SUBUNIT    0.0583
     29 H29         -12.126800    1.933700   -3.014600 H        1 SUBUNIT    0.0631
     30 Br30        -11.333600    4.446700   -1.567000 Br       1 SUBUNIT   -0.0512
     31 H31          -8.401600    3.875400   -1.909000 H        1 SUBUNIT    0.0594
@<TRIPOS>BOND
     1    1    2 2
     2    1    6 1
     3    1    7 1
     4    2    3 1
     5    3    4 2
     6    3    8 1
     7    4    5 1
     8    4   11 1
     9    5    6 2
    10    5    9 1
    11    6   10 1
    12   11   12 1
    13   11   13 2
    14   12   14 1
    15   12   15 1
    16   15   16 2
    17   15   18 1
    18   16   26 1
    19   16   19 1
    20   17   27 1
    21   17   18 2
    22   17   20 1
    23   18   21 1
    24   22   23 2
    25   22   27 1
    26   22   28 1
    27   23   24 1
    28   23   29 1
    29   24   25 2
    30   24   30 1
    31   25   26 1
    32   25   31 1
    33   26   27 1
@<SCITEGIC>ATOM_PROPERTY
Formal Charge
SciTegic.value.StringValue
1 0
2 0
3 0
4 0
5 0
6 0
7 0
8 0
9 0
10 0
11 0
12 0
13 0
14 0
15 0
16 0
17 0
18 0
19 0
20 0
21 0
22 0
23 0
24 0
25 0
26 0
27 0
28 0
29 0
30 0
31 0

@<SCITEGIC>ATOM_PROPERTY
pdb_tempFactor
SciTegic.value.DoubleValue
1 0.00
2 0.00
3 0.00
4 0.00
5 0.00
6 0.00
7 0.00
8 0.00
9 0.00
10 0.00
11 0.00
12 0.00
13 0.00
14 0.00
15 0.00
16 0.00
17 0.00
18 0.00
19 0.00
20 0.00
21 0.00
22 0.00
23 0.00
24 0.00
25 0.00
26 0.00
27 0.00
28 0.00
29 0.00
30 0.00
31 0.00

@<SCITEGIC>ATOM_PROPERTY
pdb_occupancy
SciTegic.value.DoubleValue
1 1.00
2 1.00
3 1.00
4 1.00
5 1.00
6 1.00
7 1.00
8 1.00
9 1.00
10 1.00
11 1.00
12 1.00
13 1.00
14 1.00
15 1.00
16 1.00
17 1.00
18 1.00
19 1.00
20 1.00
21 1.00
22 1.00
23 1.00
24 1.00
25 1.00
26 1.00
27 1.00
28 1.00
29 1.00
30 1.00
31 1.00

#	copyright 2023 drugdesign.org
#	Creation time:	2024-01-11T10:58:48Z

@<SCITEGIC>ROOT_PROPERTY
Ligand:MaximumNumberOfAtoms
SciTegic.value.IntegerValue
100

@<SCITEGIC>ROOT_PROPERTY
Ligand:HydrogenAtomsCountTowardsMaximum
SciTegic.value.BooleanValue
FALSE

@<TRIPOS>MOLECULE
2_bond_rotate_all.sd
   31    33     0 0 0
SMALL
USER_CHARGES


@<TRIPOS>ATOM
      1 C1            0.000000    0.000000   -2.977000 C.2      1 SUBUNIT    0.0268
      2 N2           -0.702300    1.216400   -2.977000 N.2      1 SUBUNIT   -0.2639
      3 C3           -2.106800    1.216400   -2.977000 C.2      1 SUBUNIT    0.0393
      4 C4           -2.809000    0.000000   -2.977000 C.2      1 SUBUNIT    0.0557
      5 C5           -2.106800   -1.216400   -2.977000 C.2      1 SUBUNIT   -0.0466
      6 C6           -0.702200   -1.216400   -2.977000 C.2      1 SUBUNIT   -0.0430
      7 H7            1.103400    0.000000   -2.977000 H        1 SUBUNIT    0.0840
      8 H8           -2.658500    2.172000   -2.977000 H        1 SUBUNIT    0.0848
      9 H9           -2.658500   -2.171900   -2.977000 H        1 SUBUNIT    0.0632
     10 H10          -0.150500   -2.172000   -2.977000 H        1 SUBUNIT    0.0639
     11 C11          -4.137600   -0.014300   -2.977000 C.2      1 SUBUNIT    0.2487
     12 N12          -4.826000    1.014700   -3.575300 N.am     1 SUBUNIT   -0.2816
     13 O13          -4.736500   -0.940000   -2.446300 O.2      1 SUBUNIT   -0.2715
     14 H14          -4.225800    1.729400   -3.984200 H        1 SUBUNIT    0.1560
     15 C15          -6.139900    1.003000   -3.576700 C.2      1 SUBUNIT    0.0291
     16 C16          -6.863200    2.207000   -3.577400 C.2      1 SUBUNIT   -0.0552
     17 C17          -8.225300   -0.249800   -3.578900 C.2      1 SUBUNIT   -0.0749
     18 C18          -6.820900   -0.225400   -3.577400 C.2      1 SUBUNIT   -0.0444
     19 H19          -6.328100    3.172000   -3.576900 H        1 SUBUNIT    0.0602
     20 H20          -8.760400   -1.214700   -3.579400 H        1 SUBUNIT    0.0583
     21 H21          -6.252800   -1.171300   -3.576800 H        1 SUBUNIT    0.0639
     22 C22         -10.301000    0.901100   -3.581000 C.2      1 SUBUNIT   -0.0756
     23 C23         -11.024300    2.105200   -3.581800 C.2      1 SUBUNIT   -0.0517
     24 C24         -10.343300    3.333500   -3.581000 C.2      1 SUBUNIT    0.0138
     25 C25          -8.938900    3.357800   -3.579600 C.2      1 SUBUNIT   -0.0624
     26 C26          -8.215600    2.153900   -3.578800 C.3      1 SUBUNIT    0.0480
     27 C27          -8.896700    0.925500   -3.579600 C.3      1 SUBUNIT    0.0452
     28 H28         -10.836000   -0.063900   -3.581600 H        1 SUBUNIT    0.0583
     29 H29         -12.127600    2.086000   -3.582900 H        1 SUBUNIT    0.0631
     30 Br30        -11.336400    4.986700   -3.582100 Br       1 SUBUNIT   -0.0512
     31 H31          -8.403900    4.322800   -3.579000 H        1 SUBUNIT    0.0594
@<TRIPOS>BOND
     1    1    2 2
     2    1    6 1
     3    1    7 1
     4    2    3 1
     5    3    4 2
     6    3    8 1
     7    4    5 1
     8    4   11 1
     9    5    6 2
    10    5    9 1
    11    6   10 1
    12   11   12 1
    13   11   13 2
    14   12   14 1
    15   12   15 1
    16   15   16 2
    17   15   18 1
    18   16   26 1
    19   16   19 1
    20   17   27 1
    21   17   18 2
    22   17   20 1
    23   18   21 1
    24   22   23 2
    25   22   27 1
    26   22   28 1
    27   23   24 1
    28   23   29 1
    29   24   25 2
    30   24   30 1
    31   25   26 1
    32   25   31 1
    33   26   27 1
@<SCITEGIC>ATOM_PROPERTY
Formal Charge
SciTegic.value.StringValue
1 0
2 0
3 0
4 0
5 0
6 0
7 0
8 0
9 0
10 0
11 0
12 0
13 0
14 0
15 0
16 0
17 0
18 0
19 0
20 0
21 0
22 0
23 0
24 0
25 0
26 0
27 0
28 0
29 0
30 0
31 0

@<SCITEGIC>ATOM_PROPERTY
pdb_tempFactor
SciTegic.value.DoubleValue
1 0.00
2 0.00
3 0.00
4 0.00
5 0.00
6 0.00
7 0.00
8 0.00
9 0.00
10 0.00
11 0.00
12 0.00
13 0.00
14 0.00
15 0.00
16 0.00
17 0.00
18 0.00
19 0.00
20 0.00
21 0.00
22 0.00
23 0.00
24 0.00
25 0.00
26 0.00
27 0.00
28 0.00
29 0.00
30 0.00
31 0.00

@<SCITEGIC>ATOM_PROPERTY
pdb_occupancy
SciTegic.value.DoubleValue
1 1.00
2 1.00
3 1.00
4 1.00
5 1.00
6 1.00
7 1.00
8 1.00
9 1.00
10 1.00
11 1.00
12 1.00
13 1.00
14 1.00
15 1.00
16 1.00
17 1.00
18 1.00
19 1.00
20 1.00
21 1.00
22 1.00
23 1.00
24 1.00
25 1.00
26 1.00
27 1.00
28 1.00
29 1.00
30 1.00
31 1.00

#	copyright 2023 drugdesign.org
#	Creation time:	2024-01-11T10:58:48Z

@<SCITEGIC>ROOT_PROPERTY
Ligand:MaximumNumberOfAtoms
SciTegic.value.IntegerValue
100

@<SCITEGIC>ROOT_PROPERTY
Ligand:HydrogenAtomsCountTowardsMaximum
SciTegic.value.BooleanValue
FALSE

@<TRIPOS>MOLECULE
2_bond_rotate_all.sd
   31    33     0 0 0
SMALL
USER_CHARGES


@<TRIPOS>ATOM
      1 C1            0.000000    0.000000   -2.977000 C.2      1 SUBUNIT    0.0268
      2 N2           -0.702300    1.216400   -2.977000 N.2      1 SUBUNIT   -0.2639
      3 C3           -2.106800    1.216400   -2.977000 C.2      1 SUBUNIT    0.0393
      4 C4           -2.809000    0.000000   -2.977000 C.2      1 SUBUNIT    0.0557
      5 C5           -2.106800   -1.216400   -2.977000 C.2      1 SUBUNIT   -0.0466
      6 C6           -0.702200   -1.216400   -2.977000 C.2      1 SUBUNIT   -0.0430
      7 H7            1.103400    0.000000   -2.977000 H        1 SUBUNIT    0.0840
      8 H8           -2.658500    2.172000   -2.977000 H        1 SUBUNIT    0.0848
      9 H9           -2.658500   -2.171900   -2.977000 H        1 SUBUNIT    0.0632
     10 H10          -0.150500   -2.172000   -2.977000 H        1 SUBUNIT    0.0639
     11 C11          -4.137600   -0.014300   -2.977000 C.2      1 SUBUNIT    0.2487
     12 N12          -4.826000    1.014700   -3.575300 N.am     1 SUBUNIT   -0.2816
     13 O13          -4.736500   -0.940000   -2.446300 O.2      1 SUBUNIT   -0.2715
     14 H14          -4.225800    1.729400   -3.984200 H        1 SUBUNIT    0.1560
     15 C15          -6.139900    1.003000   -3.576700 C.2      1 SUBUNIT    0.0291
     16 C16          -6.861100    2.044900   -4.182700 C.2      1 SUBUNIT   -0.0552
     17 C17          -8.227500   -0.084500   -2.961900 C.2      1 SUBUNIT   -0.0749
     18 C18          -6.823000   -0.061700   -2.966300 C.2      1 SUBUNIT   -0.0444
     19 H19          -6.324300    2.881200   -4.662200 H        1 SUBUNIT    0.0602
     20 H20          -8.764200   -0.920800   -2.482400 H        1 SUBUNIT    0.0583
     21 H21          -6.256500   -0.880200   -2.490300 H        1 SUBUNIT    0.0639
     22 C22         -10.301100    0.909800   -3.548700 C.2      1 SUBUNIT   -0.0756
     23 C23         -11.022300    1.951700   -4.154700 C.2      1 SUBUNIT   -0.0517
     24 C24         -10.339200    3.016300   -4.765100 C.2      1 SUBUNIT    0.0138
     25 C25          -8.934800    3.039000   -4.769500 C.2      1 SUBUNIT   -0.0624
     26 C26          -8.213600    1.997200   -4.163600 C.3      1 SUBUNIT    0.0480
     27 C27          -8.896800    0.932500   -3.553100 C.3      1 SUBUNIT    0.0452
     28 H28         -10.837800    0.073400   -3.069200 H        1 SUBUNIT    0.0583
     29 H29         -12.125600    1.933700   -4.151200 H        1 SUBUNIT    0.0631
     30 Br30        -11.329500    4.446800   -5.597100 Br       1 SUBUNIT   -0.0512
     31 H31          -8.398200    3.875400   -5.249000 H        1 SUBUNIT    0.0594
@<TRIPOS>BOND
     1    1    2 2
     2    1    6 1
     3    1    7 1
     4    2    3 1
     5    3    4 2
     6    3    8 1
     7    4    5 1
     8    4   11 1
     9    5    6 2
    10    5    9 1
    11    6   10 1
    12   11   12 1
    13   11   13 2
    14   12   14 1
    15   12   15 1
    16   15   16 2
    17   15   18 1
    18   16   26 1
    19   16   19 1
    20   17   27 1
    21   17   18 2
    22   17   20 1
    23   18   21 1
    24   22   23 2
    25   22   27 1
    26   22   28 1
    27   23   24 1
    28   23   29 1
    29   24   25 2
    30   24   30 1
    31   25   26 1
    32   25   31 1
    33   26   27 1
@<SCITEGIC>ATOM_PROPERTY
Formal Charge
SciTegic.value.StringValue
1 0
2 0
3 0
4 0
5 0
6 0
7 0
8 0
9 0
10 0
11 0
12 0
13 0
14 0
15 0
16 0
17 0
18 0
19 0
20 0
21 0
22 0
23 0
24 0
25 0
26 0
27 0
28 0
29 0
30 0
31 0

@<SCITEGIC>ATOM_PROPERTY
pdb_tempFactor
SciTegic.value.DoubleValue
1 0.00
2 0.00
3 0.00
4 0.00
5 0.00
6 0.00
7 0.00
8 0.00
9 0.00
10 0.00
11 0.00
12 0.00
13 0.00
14 0.00
15 0.00
16 0.00
17 0.00
18 0.00
19 0.00
20 0.00
21 0.00
22 0.00
23 0.00
24 0.00
25 0.00
26 0.00
27 0.00
28 0.00
29 0.00
30 0.00
31 0.00

@<SCITEGIC>ATOM_PROPERTY
pdb_occupancy
SciTegic.value.DoubleValue
1 1.00
2 1.00
3 1.00
4 1.00
5 1.00
6 1.00
7 1.00
8 1.00
9 1.00
10 1.00
11 1.00
12 1.00
13 1.00
14 1.00
15 1.00
16 1.00
17 1.00
18 1.00
19 1.00
20 1.00
21 1.00
22 1.00
23 1.00
24 1.00
25 1.00
26 1.00
27 1.00
28 1.00
29 1.00
30 1.00
31 1.00

#	copyright 2023 drugdesign.org
#	Creation time:	2024-01-11T10:58:48Z

@<SCITEGIC>ROOT_PROPERTY
Ligand:MaximumNumberOfAtoms
SciTegic.value.IntegerValue
100

@<SCITEGIC>ROOT_PROPERTY
Ligand:HydrogenAtomsCountTowardsMaximum
SciTegic.value.BooleanValue
FALSE

@<TRIPOS>MOLECULE
2_bond_rotate_all.sd
   31    33     0 0 0
SMALL
USER_CHARGES


@<TRIPOS>ATOM
      1 C1            0.000000    0.000000   -2.977000 C.2      1 SUBUNIT    0.0268
      2 N2           -0.702300    1.216400   -2.977000 N.2      1 SUBUNIT   -0.2639
      3 C3           -2.106800    1.216400   -2.977000 C.2      1 SUBUNIT    0.0393
      4 C4           -2.809000    0.000000   -2.977000 C.2      1 SUBUNIT    0.0557
      5 C5           -2.106800   -1.216400   -2.977000 C.2      1 SUBUNIT   -0.0466
      6 C6           -0.702200   -1.216400   -2.977000 C.2      1 SUBUNIT   -0.0430
      7 H7            1.103400    0.000000   -2.977000 H        1 SUBUNIT    0.0840
      8 H8           -2.658500    2.172000   -2.977000 H        1 SUBUNIT    0.0848
      9 H9           -2.658500   -2.171900   -2.977000 H        1 SUBUNIT    0.0632
     10 H10          -0.150500   -2.172000   -2.977000 H        1 SUBUNIT    0.0639
     11 C11          -4.137600   -0.014300   -2.977000 C.2      1 SUBUNIT    0.2487
     12 N12          -4.826000    1.014700   -3.575300 N.am     1 SUBUNIT   -0.2816
     13 O13          -4.736500   -0.940000   -2.446300 O.2      1 SUBUNIT   -0.2715
     14 H14          -4.225800    1.729400   -3.984200 H        1 SUBUNIT    0.1560
     15 C15          -6.139900    1.003000   -3.576700 C.2      1 SUBUNIT    0.0291
     16 C16          -6.856700    1.601300   -4.626000 C.2      1 SUBUNIT   -0.0552
     17 C17          -8.232000    0.367700   -2.509900 C.2      1 SUBUNIT   -0.0749
     18 C18          -6.827500    0.386200   -2.518600 C.2      1 SUBUNIT   -0.0444
     19 H19          -6.316400    2.085900   -5.457300 H        1 SUBUNIT    0.0602
     20 H20          -8.772200   -0.116800   -1.678800 H        1 SUBUNIT    0.0583
     21 H21          -6.264500   -0.083900   -1.694300 H        1 SUBUNIT    0.0639
     22 C22         -10.301300    0.933500   -3.525100 C.2      1 SUBUNIT   -0.0756
     23 C23         -11.018100    1.531800   -4.574400 C.2      1 SUBUNIT   -0.0517
     24 C24         -10.330500    2.148500   -5.632400 C.2      1 SUBUNIT    0.0138
     25 C25          -8.926100    2.167000   -5.641100 C.2      1 SUBUNIT   -0.0624
     26 C26          -8.209300    1.568700   -4.591900 C.3      1 SUBUNIT    0.0480
     27 C27          -8.897000    0.951900   -3.533800 C.3      1 SUBUNIT    0.0452
     28 H28         -10.841500    0.448900   -2.693900 H        1 SUBUNIT    0.0583
     29 H29         -12.121500    1.517200   -4.567500 H        1 SUBUNIT    0.0631
     30 Br30        -11.314700    2.970000   -7.073200 Br       1 SUBUNIT   -0.0512
     31 H31          -8.385900    2.651500   -6.472400 H        1 SUBUNIT    0.0594
@<TRIPOS>BOND
     1    1    2 2
     2    1    6 1
     3    1    7 1
     4    2    3 1
     5    3    4 2
     6    3    8 1
     7    4    5 1
     8    4   11 1
     9    5    6 2
    10    5    9 1
    11    6   10 1
    12   11   12 1
    13   11   13 2
    14   12   14 1
    15   12   15 1
    16   15   16 2
    17   15   18 1
    18   16   26 1
    19   16   19 1
    20   17   27 1
    21   17   18 2
    22   17   20 1
    23   18   21 1
    24   22   23 2
    25   22   27 1
    26   22   28 1
    27   23   24 1
    28   23   29 1
    29   24   25 2
    30   24   30 1
    31   25   26 1
    32   25   31 1
    33   26   27 1
@<SCITEGIC>ATOM_PROPERTY
Formal Charge
SciTegic.value.StringValue
1 0
2 0
3 0
4 0
5 0
6 0
7 0
8 0
9 0
10 0
11 0
12 0
13 0
14 0
15 0
16 0
17 0
18 0
19 0
20 0
21 0
22 0
23 0
24 0
25 0
26 0
27 0
28 0
29 0
30 0
31 0

@<SCITEGIC>ATOM_PROPERTY
pdb_tempFactor
SciTegic.value.DoubleValue
1 0.00
2 0.00
3 0.00
4 0.00
5 0.00
6 0.00
7 0.00
8 0.00
9 0.00
10 0.00
11 0.00
12 0.00
13 0.00
14 0.00
15 0.00
16 0.00
17 0.00
18 0.00
19 0.00
20 0.00
21 0.00
22 0.00
23 0.00
24 0.00
25 0.00
26 0.00
27 0.00
28 0.00
29 0.00
30 0.00
31 0.00

@<SCITEGIC>ATOM_PROPERTY
pdb_occupancy
SciTegic.value.DoubleValue
1 1.00
2 1.00
3 1.00
4 1.00
5 1.00
6 1.00
7 1.00
8 1.00
9 1.00
10 1.00
11 1.00
12 1.00
13 1.00
14 1.00
15 1.00
16 1.00
17 1.00
18 1.00
19 1.00
20 1.00
21 1.00
22 1.00
23 1.00
24 1.00
25 1.00
26 1.00
27 1.00
28 1.00
29 1.00
30 1.00
31 1.00

#	copyright 2023 drugdesign.org
#	Creation time:	2024-01-11T10:58:48Z

@<SCITEGIC>ROOT_PROPERTY
Ligand:MaximumNumberOfAtoms
SciTegic.value.IntegerValue
100

@<SCITEGIC>ROOT_PROPERTY
Ligand:HydrogenAtomsCountTowardsMaximum
SciTegic.value.BooleanValue
FALSE

@<TRIPOS>MOLECULE
2_bond_rotate_all.sd
   31    33     0 0 0
SMALL
USER_CHARGES


@<TRIPOS>ATOM
      1 C1            0.000000    0.000000   -2.977000 C.2      1 SUBUNIT    0.0268
      2 N2           -0.702300    1.216400   -2.977000 N.2      1 SUBUNIT   -0.2639
      3 C3           -2.106800    1.216400   -2.977000 C.2      1 SUBUNIT    0.0393
      4 C4           -2.809000    0.000000   -2.977000 C.2      1 SUBUNIT    0.0557
      5 C5           -2.106800   -1.216400   -2.977000 C.2      1 SUBUNIT   -0.0466
      6 C6           -0.702200   -1.216400   -2.977000 C.2      1 SUBUNIT   -0.0430
      7 H7            1.103400    0.000000   -2.977000 H        1 SUBUNIT    0.0840
      8 H8           -2.658500    2.172000   -2.977000 H        1 SUBUNIT    0.0848
      9 H9           -2.658500   -2.171900   -2.977000 H        1 SUBUNIT    0.0632
     10 H10          -0.150500   -2.172000   -2.977000 H        1 SUBUNIT    0.0639
     11 C11          -4.137600   -0.014300   -2.977000 C.2      1 SUBUNIT    0.2487
     12 N12          -4.826000    1.014700   -3.575300 N.am     1 SUBUNIT   -0.2816
     13 O13          -4.736500   -0.940000   -2.446300 O.2      1 SUBUNIT   -0.2715
     14 H14          -4.225800    1.729400   -3.984200 H        1 SUBUNIT    0.1560
     15 C15          -6.139900    1.003000   -3.576700 C.2      1 SUBUNIT    0.0291
     16 C16          -6.851100    0.996600   -4.787900 C.2      1 SUBUNIT   -0.0552
     17 C17          -8.237700    0.984200   -2.344900 C.2      1 SUBUNIT   -0.0749
     18 C18          -6.833200    0.996800   -2.355200 C.2      1 SUBUNIT   -0.0444
     19 H19          -6.306400    1.001500   -5.747500 H        1 SUBUNIT    0.0602
     20 H20          -8.782300    0.979300   -1.385300 H        1 SUBUNIT    0.0583
     21 H21          -6.274500    1.001800   -1.403700 H        1 SUBUNIT    0.0639
     22 C22         -10.301600    0.965700   -3.516500 C.2      1 SUBUNIT   -0.0756
     23 C23         -11.012800    0.959400   -4.727700 C.2      1 SUBUNIT   -0.0517
     24 C24         -10.319600    0.965600   -5.949100 C.2      1 SUBUNIT    0.0138
     25 C25          -8.915200    0.978100   -5.959400 C.2      1 SUBUNIT   -0.0624
     26 C26          -8.203900    0.984500   -4.748300 C.3      1 SUBUNIT    0.0480
     27 C27          -8.897200    0.978300   -3.526700 C.3      1 SUBUNIT    0.0452
     28 H28         -10.846300    0.960800   -2.556800 H        1 SUBUNIT    0.0583
     29 H29         -12.116200    0.949500   -4.719500 H        1 SUBUNIT    0.0631
     30 Br30        -11.296100    0.956800   -7.612100 Br       1 SUBUNIT   -0.0512
     31 H31          -8.370500    0.983000   -6.919000 H        1 SUBUNIT    0.0594
@<TRIPOS>BOND
     1    1    2 2
     2    1    6 1
     3    1    7 1
     4    2    3 1
     5    3    4 2
     6    3    8 1
     7    4    5 1
     8    4   11 1
     9    5    6 2
    10    5    9 1
    11    6   10 1
    12   11   12 1
    13   11   13 2
    14   12   14 1
    15   12   15 1
    16   15   16 2
    17   15   18 1
    18   16   26 1
    19   16   19 1
    20   17   27 1
    21   17   18 2
    22   17   20 1
    23   18   21 1
    24   22   23 2
    25   22   27 1
    26   22   28 1
    27   23   24 1
    28   23   29 1
    29   24   25 2
    30   24   30 1
    31   25   26 1
    32   25   31 1
    33   26   27 1
@<SCITEGIC>ATOM_PROPERTY
Formal Charge
SciTegic.value.StringValue
1 0
2 0
3 0
4 0
5 0
6 0
7 0
8 0
9 0
10 0
11 0
12 0
13 0
14 0
15 0
16 0
17 0
18 0
19 0
20 0
21 0
22 0
23 0
24 0
25 0
26 0
27 0
28 0
29 0
30 0
31 0

@<SCITEGIC>ATOM_PROPERTY
pdb_tempFactor
SciTegic.value.DoubleValue
1 0.00
2 0.00
3 0.00
4 0.00
5 0.00
6 0.00
7 0.00
8 0.00
9 0.00
10 0.00
11 0.00
12 0.00
13 0.00
14 0.00
15 0.00
16 0.00
17 0.00
18 0.00
19 0.00
20 0.00
21 0.00
22 0.00
23 0.00
24 0.00
25 0.00
26 0.00
27 0.00
28 0.00
29 0.00
30 0.00
31 0.00

@<SCITEGIC>ATOM_PROPERTY
pdb_occupancy
SciTegic.value.DoubleValue
1 1.00
2 1.00
3 1.00
4 1.00
5 1.00
6 1.00
7 1.00
8 1.00
9 1.00
10 1.00
11 1.00
12 1.00
13 1.00
14 1.00
15 1.00
16 1.00
17 1.00
18 1.00
19 1.00
20 1.00
21 1.00
22 1.00
23 1.00
24 1.00
25 1.00
26 1.00
27 1.00
28 1.00
29 1.00
30 1.00
31 1.00

#	copyright 2023 drugdesign.org
#	Creation time:	2024-01-11T10:58:48Z

@<SCITEGIC>ROOT_PROPERTY
Ligand:MaximumNumberOfAtoms
SciTegic.value.IntegerValue
100

@<SCITEGIC>ROOT_PROPERTY
Ligand:HydrogenAtomsCountTowardsMaximum
SciTegic.value.BooleanValue
FALSE

@<TRIPOS>MOLECULE
2_bond_rotate_all.sd
   31    33     0 0 0
SMALL
USER_CHARGES


@<TRIPOS>ATOM
      1 C1            0.000000    0.000000   -2.977000 C.2      1 SUBUNIT    0.0268
      2 N2           -0.702300    1.216400   -2.977000 N.2      1 SUBUNIT   -0.2639
      3 C3           -2.106800    1.216400   -2.977000 C.2      1 SUBUNIT    0.0393
      4 C4           -2.809000    0.000000   -2.977000 C.2      1 SUBUNIT    0.0557
      5 C5           -2.106800   -1.216400   -2.977000 C.2      1 SUBUNIT   -0.0466
      6 C6           -0.702200   -1.216400   -2.977000 C.2      1 SUBUNIT   -0.0430
      7 H7            1.103400    0.000000   -2.977000 H        1 SUBUNIT    0.0840
      8 H8           -2.658500    2.172000   -2.977000 H        1 SUBUNIT    0.0848
      9 H9           -2.658500   -2.171900   -2.977000 H        1 SUBUNIT    0.0632
     10 H10          -0.150500   -2.172000   -2.977000 H        1 SUBUNIT    0.0639
     11 C11          -4.137600   -0.014300   -2.977000 C.2      1 SUBUNIT    0.2487
     12 N12          -4.826000    1.014700   -3.575300 N.am     1 SUBUNIT   -0.2816
     13 O13          -4.736500   -0.940000   -2.446300 O.2      1 SUBUNIT   -0.2715
     14 H14          -4.225800    1.729400   -3.984200 H        1 SUBUNIT    0.1560
     15 C15          -6.139900    1.003000   -3.576700 C.2      1 SUBUNIT    0.0291
     16 C16          -6.845900    0.391400   -4.625700 C.2      1 SUBUNIT   -0.0552
     17 C17          -8.243000    1.601200   -2.510200 C.2      1 SUBUNIT   -0.0749
     18 C18          -6.838500    1.607900   -2.518900 C.2      1 SUBUNIT   -0.0444
     19 H19          -6.297000   -0.083800   -5.456700 H        1 SUBUNIT    0.0602
     20 H20          -8.791800    2.076300   -1.679300 H        1 SUBUNIT    0.0583
     21 H21          -6.283900    2.088300   -1.694800 H        1 SUBUNIT    0.0639
     22 C22         -10.301900    0.998000   -3.525100 C.2      1 SUBUNIT   -0.0756
     23 C23         -11.007900    0.386400   -4.574100 C.2      1 SUBUNIT   -0.0517
     24 C24         -10.309300   -0.218400   -5.631900 C.2      1 SUBUNIT    0.0138
     25 C25          -8.904800   -0.211700   -5.640600 C.2      1 SUBUNIT   -0.0624
     26 C26          -8.198800    0.399800   -4.591600 C.3      1 SUBUNIT    0.0480
     27 C27          -8.897400    1.004700   -3.533800 C.3      1 SUBUNIT    0.0452
     28 H28         -10.850700    1.473200   -2.694100 H        1 SUBUNIT    0.0583
     29 H29         -12.111300    0.381200   -4.567200 H        1 SUBUNIT    0.0631
     30 Br30        -11.278600   -1.058100   -7.072200 Br       1 SUBUNIT   -0.0512
     31 H31          -8.356100   -0.686900   -6.471500 H        1 SUBUNIT    0.0594
@<TRIPOS>BOND
     1    1    2 2
     2    1    6 1
     3    1    7 1
     4    2    3 1
     5    3    4 2
     6    3    8 1
     7    4    5 1
     8    4   11 1
     9    5    6 2
    10    5    9 1
    11    6   10 1
    12   11   12 1
    13   11   13 2
    14   12   14 1
    15   12   15 1
    16   15   16 2
    17   15   18 1
    18   16   26 1
    19   16   19 1
    20   17   27 1
    21   17   18 2
    22   17   20 1
    23   18   21 1
    24   22   23 2
    25   22   27 1
    26   22   28 1
    27   23   24 1
    28   23   29 1
    29   24   25 2
    30   24   30 1
    31   25   26 1
    32   25   31 1
    33   26   27 1
@<SCITEGIC>ATOM_PROPERTY
Formal Charge
SciTegic.value.StringValue
1 0
2 0
3 0
4 0
5 0
6 0
7 0
8 0
9 0
10 0
11 0
12 0
13 0
14 0
15 0
16 0
17 0
18 0
19 0
20 0
21 0
22 0
23 0
24 0
25 0
26 0
27 0
28 0
29 0
30 0
31 0

@<SCITEGIC>ATOM_PROPERTY
pdb_tempFactor
SciTegic.value.DoubleValue
1 0.00
2 0.00
3 0.00
4 0.00
5 0.00
6 0.00
7 0.00
8 0.00
9 0.00
10 0.00
11 0.00
12 0.00
13 0.00
14 0.00
15 0.00
16 0.00
17 0.00
18 0.00
19 0.00
20 0.00
21 0.00
22 0.00
23 0.00
24 0.00
25 0.00
26 0.00
27 0.00
28 0.00
29 0.00
30 0.00
31 0.00

@<SCITEGIC>ATOM_PROPERTY
pdb_occupancy
SciTegic.value.DoubleValue
1 1.00
2 1.00
3 1.00
4 1.00
5 1.00
6 1.00
7 1.00
8 1.00
9 1.00
10 1.00
11 1.00
12 1.00
13 1.00
14 1.00
15 1.00
16 1.00
17 1.00
18 1.00
19 1.00
20 1.00
21 1.00
22 1.00
23 1.00
24 1.00
25 1.00
26 1.00
27 1.00
28 1.00
29 1.00
30 1.00
31 1.00

#	copyright 2023 drugdesign.org
#	Creation time:	2024-01-11T10:58:48Z

@<SCITEGIC>ROOT_PROPERTY
Ligand:MaximumNumberOfAtoms
SciTegic.value.IntegerValue
100

@<SCITEGIC>ROOT_PROPERTY
Ligand:HydrogenAtomsCountTowardsMaximum
SciTegic.value.BooleanValue
FALSE

@<TRIPOS>MOLECULE
2_bond_rotate_all.sd
   31    33     0 0 0
SMALL
USER_CHARGES


@<TRIPOS>ATOM
      1 C1            0.000000    0.000000   -2.977000 C.2      1 SUBUNIT    0.0268
      2 N2           -0.702300    1.216400   -2.977000 N.2      1 SUBUNIT   -0.2639
      3 C3           -2.106800    1.216400   -2.977000 C.2      1 SUBUNIT    0.0393
      4 C4           -2.809000    0.000000   -2.977000 C.2      1 SUBUNIT    0.0557
      5 C5           -2.106800   -1.216400   -2.977000 C.2      1 SUBUNIT   -0.0466
      6 C6           -0.702200   -1.216400   -2.977000 C.2      1 SUBUNIT   -0.0430
      7 H7            1.103400    0.000000   -2.977000 H        1 SUBUNIT    0.0840
      8 H8           -2.658500    2.172000   -2.977000 H        1 SUBUNIT    0.0848
      9 H9           -2.658500   -2.171900   -2.977000 H        1 SUBUNIT    0.0632
     10 H10          -0.150500   -2.172000   -2.977000 H        1 SUBUNIT    0.0639
     11 C11          -4.137600   -0.014300   -2.977000 C.2      1 SUBUNIT    0.2487
     12 N12          -4.826000    1.014700   -3.575300 N.am     1 SUBUNIT   -0.2816
     13 O13          -4.736500   -0.940000   -2.446300 O.2      1 SUBUNIT   -0.2715
     14 H14          -4.225800    1.729400   -3.984200 H        1 SUBUNIT    0.1560
     15 C15          -6.139900    1.003000   -3.576700 C.2      1 SUBUNIT    0.0291
     16 C16          -6.842400   -0.051700   -4.182700 C.2      1 SUBUNIT   -0.0552
     17 C17          -8.246600    2.052900   -2.961900 C.2      1 SUBUNIT   -0.0749
     18 C18          -6.842000    2.055200   -2.966300 C.2      1 SUBUNIT   -0.0444
     19 H19          -6.290700   -0.878300   -4.662200 H        1 SUBUNIT    0.0602
     20 H20          -8.798200    2.879400   -2.482400 H        1 SUBUNIT    0.0583
     21 H21          -6.290200    2.883700   -2.490200 H        1 SUBUNIT    0.0639
     22 C22         -10.302100    1.021600   -3.548700 C.2      1 SUBUNIT   -0.0756
     23 C23         -11.004600   -0.033000   -4.154700 C.2      1 SUBUNIT   -0.0517
     24 C24         -10.302500   -1.085200   -4.765100 C.2      1 SUBUNIT    0.0138
     25 C25          -8.897900   -1.082800   -4.769500 C.2      1 SUBUNIT   -0.0624
     26 C26          -8.195500   -0.028200   -4.163600 C.3      1 SUBUNIT    0.0480
     27 C27          -8.897600    1.024100   -3.553100 C.3      1 SUBUNIT    0.0452
     28 H28         -10.853700    1.848300   -3.069200 H        1 SUBUNIT    0.0583
     29 H29         -12.108000   -0.034800   -4.151200 H        1 SUBUNIT    0.0631
     30 Br30        -11.267000   -2.533200   -5.597100 Br       1 SUBUNIT   -0.0512
     31 H31          -8.346400   -1.909400   -5.249000 H        1 SUBUNIT    0.0594
@<TRIPOS>BOND
     1    1    2 2
     2    1    6 1
     3    1    7 1
     4    2    3 1
     5    3    4 2
     6    3    8 1
     7    4    5 1
     8    4   11 1
     9    5    6 2
    10    5    9 1
    11    6   10 1
    12   11   12 1
    13   11   13 2
    14   12   14 1
    15   12   15 1
    16   15   16 2
    17   15   18 1
    18   16   26 1
    19   16   19 1
    20   17   27 1
    21   17   18 2
    22   17   20 1
    23   18   21 1
    24   22   23 2
    25   22   27 1
    26   22   28 1
    27   23   24 1
    28   23   29 1
    29   24   25 2
    30   24   30 1
    31   25   26 1
    32   25   31 1
    33   26   27 1
@<SCITEGIC>ATOM_PROPERTY
Formal Charge
SciTegic.value.StringValue
1 0
2 0
3 0
4 0
5 0
6 0
7 0
8 0
9 0
10 0
11 0
12 0
13 0
14 0
15 0
16 0
17 0
18 0
19 0
20 0
21 0
22 0
23 0
24 0
25 0
26 0
27 0
28 0
29 0
30 0
31 0

@<SCITEGIC>ATOM_PROPERTY
pdb_tempFactor
SciTegic.value.DoubleValue
1 0.00
2 0.00
3 0.00
4 0.00
5 0.00
6 0.00
7 0.00
8 0.00
9 0.00
10 0.00
11 0.00
12 0.00
13 0.00
14 0.00
15 0.00
16 0.00
17 0.00
18 0.00
19 0.00
20 0.00
21 0.00
22 0.00
23 0.00
24 0.00
25 0.00
26 0.00
27 0.00
28 0.00
29 0.00
30 0.00
31 0.00

@<SCITEGIC>ATOM_PROPERTY
pdb_occupancy
SciTegic.value.DoubleValue
1 1.00
2 1.00
3 1.00
4 1.00
5 1.00
6 1.00
7 1.00
8 1.00
9 1.00
10 1.00
11 1.00
12 1.00
13 1.00
14 1.00
15 1.00
16 1.00
17 1.00
18 1.00
19 1.00
20 1.00
21 1.00
22 1.00
23 1.00
24 1.00
25 1.00
26 1.00
27 1.00
28 1.00
29 1.00
30 1.00
31 1.00

#	copyright 2023 drugdesign.org
#	Creation time:	2024-01-11T10:58:48Z

@<SCITEGIC>ROOT_PROPERTY
Ligand:MaximumNumberOfAtoms
SciTegic.value.IntegerValue
100

@<SCITEGIC>ROOT_PROPERTY
Ligand:HydrogenAtomsCountTowardsMaximum
SciTegic.value.BooleanValue
FALSE

@<TRIPOS>MOLECULE
2_bond_rotate_all.sd
   31    33     0 0 0
SMALL
USER_CHARGES


@<TRIPOS>ATOM
      1 C1            0.000000    0.000000   -2.977000 C.2      1 SUBUNIT    0.0268
      2 N2           -0.702300    1.216400   -2.977000 N.2      1 SUBUNIT   -0.2639
      3 C3           -2.106800    1.216400   -2.977000 C.2      1 SUBUNIT    0.0393
      4 C4           -2.809000    0.000000   -2.977000 C.2      1 SUBUNIT    0.0557
      5 C5           -2.106800   -1.216400   -2.977000 C.2      1 SUBUNIT   -0.0466
      6 C6           -0.702200   -1.216400   -2.977000 C.2      1 SUBUNIT   -0.0430
      7 H7            1.103400    0.000000   -2.977000 H        1 SUBUNIT    0.0840
      8 H8           -2.658500    2.172000   -2.977000 H        1 SUBUNIT    0.0848
      9 H9           -2.658500   -2.171900   -2.977000 H        1 SUBUNIT    0.0632
     10 H10          -0.150500   -2.172000   -2.977000 H        1 SUBUNIT    0.0639
     11 C11          -4.137600   -0.014300   -2.977000 C.2      1 SUBUNIT    0.2487
     12 N12          -4.826000    1.014700   -3.575300 N.am     1 SUBUNIT   -0.2816
     13 O13          -4.736500   -0.940000   -2.446300 O.2      1 SUBUNIT   -0.2715
     14 H14          -4.225800    1.729400   -3.984200 H        1 SUBUNIT    0.1560
     15 C15          -6.139900    1.003000   -3.576700 C.2      1 SUBUNIT    0.0291
     16 C16          -6.841600   -0.213800   -3.577400 C.2      1 SUBUNIT   -0.0552
     17 C17          -8.247400    2.218200   -3.578900 C.2      1 SUBUNIT   -0.0749
     18 C18          -6.842800    2.219000   -3.577400 C.2      1 SUBUNIT   -0.0444
     19 H19          -6.289200   -1.169100   -3.576900 H        1 SUBUNIT    0.0602
     20 H20          -8.799700    3.173400   -3.579400 H        1 SUBUNIT    0.0583
     21 H21          -6.291700    3.174900   -3.576800 H        1 SUBUNIT    0.0639
     22 C22         -10.302200    1.030300   -3.581000 C.2      1 SUBUNIT   -0.0756
     23 C23         -11.003800   -0.186500   -3.581800 C.2      1 SUBUNIT   -0.0517
     24 C24         -10.300900   -1.402500   -3.581000 C.2      1 SUBUNIT    0.0138
     25 C25          -8.896300   -1.401600   -3.579600 C.2      1 SUBUNIT   -0.0624
     26 C26          -8.194700   -0.184900   -3.578900 C.3      1 SUBUNIT    0.0480
     27 C27          -8.897600    1.031100   -3.579600 C.3      1 SUBUNIT    0.0452
     28 H28         -10.854400    1.985600   -3.581600 H        1 SUBUNIT    0.0583
     29 H29         -12.107300   -0.187000   -3.582900 H        1 SUBUNIT    0.0631
     30 Br30        -11.264200   -3.073100   -3.582100 Br       1 SUBUNIT   -0.0512
     31 H31          -8.344100   -2.356900   -3.579000 H        1 SUBUNIT    0.0594
@<TRIPOS>BOND
     1    1    2 2
     2    1    6 1
     3    1    7 1
     4    2    3 1
     5    3    4 2
     6    3    8 1
     7    4    5 1
     8    4   11 1
     9    5    6 2
    10    5    9 1
    11    6   10 1
    12   11   12 1
    13   11   13 2
    14   12   14 1
    15   12   15 1
    16   15   16 2
    17   15   18 1
    18   16   26 1
    19   16   19 1
    20   17   27 1
    21   17   18 2
    22   17   20 1
    23   18   21 1
    24   22   23 2
    25   22   27 1
    26   22   28 1
    27   23   24 1
    28   23   29 1
    29   24   25 2
    30   24   30 1
    31   25   26 1
    32   25   31 1
    33   26   27 1
@<SCITEGIC>ATOM_PROPERTY
Formal Charge
SciTegic.value.StringValue
1 0
2 0
3 0
4 0
5 0
6 0
7 0
8 0
9 0
10 0
11 0
12 0
13 0
14 0
15 0
16 0
17 0
18 0
19 0
20 0
21 0
22 0
23 0
24 0
25 0
26 0
27 0
28 0
29 0
30 0
31 0

@<SCITEGIC>ATOM_PROPERTY
pdb_tempFactor
SciTegic.value.DoubleValue
1 0.00
2 0.00
3 0.00
4 0.00
5 0.00
6 0.00
7 0.00
8 0.00
9 0.00
10 0.00
11 0.00
12 0.00
13 0.00
14 0.00
15 0.00
16 0.00
17 0.00
18 0.00
19 0.00
20 0.00
21 0.00
22 0.00
23 0.00
24 0.00
25 0.00
26 0.00
27 0.00
28 0.00
29 0.00
30 0.00
31 0.00

@<SCITEGIC>ATOM_PROPERTY
pdb_occupancy
SciTegic.value.DoubleValue
1 1.00
2 1.00
3 1.00
4 1.00
5 1.00
6 1.00
7 1.00
8 1.00
9 1.00
10 1.00
11 1.00
12 1.00
13 1.00
14 1.00
15 1.00
16 1.00
17 1.00
18 1.00
19 1.00
20 1.00
21 1.00
22 1.00
23 1.00
24 1.00
25 1.00
26 1.00
27 1.00
28 1.00
29 1.00
30 1.00
31 1.00

#	copyright 2023 drugdesign.org
#	Creation time:	2024-01-11T10:58:48Z

@<SCITEGIC>ROOT_PROPERTY
Ligand:MaximumNumberOfAtoms
SciTegic.value.IntegerValue
100

@<SCITEGIC>ROOT_PROPERTY
Ligand:HydrogenAtomsCountTowardsMaximum
SciTegic.value.BooleanValue
FALSE

@<TRIPOS>MOLECULE
2_bond_rotate_all.sd
   31    33     0 0 0
SMALL
USER_CHARGES


@<TRIPOS>ATOM
      1 C1            0.000000    0.000000   -2.977000 C.2      1 SUBUNIT    0.0268
      2 N2           -0.702300    1.216400   -2.977000 N.2      1 SUBUNIT   -0.2639
      3 C3           -2.106800    1.216400   -2.977000 C.2      1 SUBUNIT    0.0393
      4 C4           -2.809000    0.000000   -2.977000 C.2      1 SUBUNIT    0.0557
      5 C5           -2.106800   -1.216400   -2.977000 C.2      1 SUBUNIT   -0.0466
      6 C6           -0.702200   -1.216400   -2.977000 C.2      1 SUBUNIT   -0.0430
      7 H7            1.103400    0.000000   -2.977000 H        1 SUBUNIT    0.0840
      8 H8           -2.658500    2.172000   -2.977000 H        1 SUBUNIT    0.0848
      9 H9           -2.658500   -2.171900   -2.977000 H        1 SUBUNIT    0.0632
     10 H10          -0.150500   -2.172000   -2.977000 H        1 SUBUNIT    0.0639
     11 C11          -4.137600   -0.014300   -2.977000 C.2      1 SUBUNIT    0.2487
     12 N12          -4.821300    0.576700   -4.013400 N.am     1 SUBUNIT   -0.2816
     13 O13          -4.740700   -0.551500   -2.057800 O.2      1 SUBUNIT   -0.2715
     14 H14          -4.217900    0.992100   -4.721500 H        1 SUBUNIT    0.1560
     15 C15          -6.135200    0.564000   -4.015700 C.2      1 SUBUNIT    0.0291
     16 C16          -6.843700   -0.048200   -2.968700 C.2      1 SUBUNIT   -0.0552
     17 C17          -8.235700    1.160600   -5.088200 C.2      1 SUBUNIT   -0.0749
     18 C18          -6.831200    1.168400   -5.075500 C.2      1 SUBUNIT   -0.0444
     19 H19          -6.296800   -0.523000   -2.136200 H        1 SUBUNIT    0.0602
     20 H20          -8.782500    1.635400   -5.920600 H        1 SUBUNIT    0.0583
     21 H21          -6.274700    1.649300   -5.898000 H        1 SUBUNIT    0.0639
     22 C22         -10.297000    0.555800   -4.079100 C.2      1 SUBUNIT   -0.0756
     23 C23         -11.005500   -0.056300   -3.032100 C.2      1 SUBUNIT   -0.0517
     24 C24         -10.309500   -0.660700   -1.972400 C.2      1 SUBUNIT    0.0138
     25 C25          -8.905000   -0.652900   -1.959800 C.2      1 SUBUNIT   -0.0624
     26 C26          -8.196500   -0.040800   -3.006700 C.3      1 SUBUNIT    0.0480
     27 C27          -8.892600    0.563600   -4.066500 C.3      1 SUBUNIT    0.0452
     28 H28         -10.843800    1.030600   -4.911700 H        1 SUBUNIT    0.0583
     29 H29         -12.108900   -0.062300   -3.042200 H        1 SUBUNIT    0.0631
     30 Br30        -11.282300   -1.501100   -0.534900 Br       1 SUBUNIT   -0.0512
     31 H31          -8.358300   -1.127700   -1.127200 H        1 SUBUNIT    0.0594
@<TRIPOS>BOND
     1    1    2 2
     2    1    6 1
     3    1    7 1
     4    2    3 1
     5    3    4 2
     6    3    8 1
     7    4    5 1
     8    4   11 1
     9    5    6 2
    10    5    9 1
    11    6   10 1
    12   11   12 1
    13   11   13 2
    14   12   14 1
    15   12   15 1
    16   15   16 2
    17   15   18 1
    18   16   26 1
    19   16   19 1
    20   17   27 1
    21   17   18 2
    22   17   20 1
    23   18   21 1
    24   22   23 2
    25   22   27 1
    26   22   28 1
    27   23   24 1
    28   23   29 1
    29   24   25 2
    30   24   30 1
    31   25   26 1
    32   25   31 1
    33   26   27 1
@<SCITEGIC>ATOM_PROPERTY
Formal Charge
SciTegic.value.StringValue
1 0
2 0
3 0
4 0
5 0
6 0
7 0
8 0
9 0
10 0
11 0
12 0
13 0
14 0
15 0
16 0
17 0
18 0
19 0
20 0
21 0
22 0
23 0
24 0
25 0
26 0
27 0
28 0
29 0
30 0
31 0

@<SCITEGIC>ATOM_PROPERTY
pdb_tempFactor
SciTegic.value.DoubleValue
1 0.00
2 0.00
3 0.00
4 0.00
5 0.00
6 0.00
7 0.00
8 0.00
9 0.00
10 0.00
11 0.00
12 0.00
13 0.00
14 0.00
15 0.00
16 0.00
17 0.00
18 0.00
19 0.00
20 0.00
21 0.00
22 0.00
23 0.00
24 0.00
25 0.00
26 0.00
27 0.00
28 0.00
29 0.00
30 0.00
31 0.00

@<SCITEGIC>ATOM_PROPERTY
pdb_occupancy
SciTegic.value.DoubleValue
1 1.00
2 1.00
3 1.00
4 1.00
5 1.00
6 1.00
7 1.00
8 1.00
9 1.00
10 1.00
11 1.00
12 1.00
13 1.00
14 1.00
15 1.00
16 1.00
17 1.00
18 1.00
19 1.00
20 1.00
21 1.00
22 1.00
23 1.00
24 1.00
25 1.00
26 1.00
27 1.00
28 1.00
29 1.00
30 1.00
31 1.00

#	copyright 2023 drugdesign.org
#	Creation time:	2024-01-11T10:58:48Z

@<SCITEGIC>ROOT_PROPERTY
Ligand:MaximumNumberOfAtoms
SciTegic.value.IntegerValue
100

@<SCITEGIC>ROOT_PROPERTY
Ligand:HydrogenAtomsCountTowardsMaximum
SciTegic.value.BooleanValue
FALSE

@<TRIPOS>MOLECULE
2_bond_rotate_all.sd
   31    33     0 0 0
SMALL
USER_CHARGES


@<TRIPOS>ATOM
      1 C1            0.000000    0.000000   -2.977000 C.2      1 SUBUNIT    0.0268
      2 N2           -0.702300    1.216400   -2.977000 N.2      1 SUBUNIT   -0.2639
      3 C3           -2.106800    1.216400   -2.977000 C.2      1 SUBUNIT    0.0393
      4 C4           -2.809000    0.000000   -2.977000 C.2      1 SUBUNIT    0.0557
      5 C5           -2.106800   -1.216400   -2.977000 C.2      1 SUBUNIT   -0.0466
      6 C6           -0.702200   -1.216400   -2.977000 C.2      1 SUBUNIT   -0.0430
      7 H7            1.103400    0.000000   -2.977000 H        1 SUBUNIT    0.0840
      8 H8           -2.658500    2.172000   -2.977000 H        1 SUBUNIT    0.0848
      9 H9           -2.658500   -2.171900   -2.977000 H        1 SUBUNIT    0.0632
     10 H10          -0.150500   -2.172000   -2.977000 H        1 SUBUNIT    0.0639
     11 C11          -4.137600   -0.014300   -2.977000 C.2      1 SUBUNIT    0.2487
     12 N12          -4.821300    0.576700   -4.013400 N.am     1 SUBUNIT   -0.2816
     13 O13          -4.740700   -0.551500   -2.057800 O.2      1 SUBUNIT   -0.2715
     14 H14          -4.217900    0.992100   -4.721500 H        1 SUBUNIT    0.1560
     15 C15          -6.135200    0.564000   -4.015700 C.2      1 SUBUNIT    0.0291
     16 C16          -6.849800    0.557000   -2.806500 C.2      1 SUBUNIT   -0.0552
     17 C17          -8.229400    0.543600   -5.253500 C.2      1 SUBUNIT   -0.0749
     18 C18          -6.825000    0.557300   -5.239200 C.2      1 SUBUNIT   -0.0444
     19 H19          -6.307800    0.562300   -1.845400 H        1 SUBUNIT    0.0602
     20 H20          -8.771300    0.538400   -6.214600 H        1 SUBUNIT    0.0583
     21 H21          -6.263600    0.562700   -6.189100 H        1 SUBUNIT    0.0639
     22 C22         -10.296700    0.523600   -4.087800 C.2      1 SUBUNIT   -0.0756
     23 C23         -11.011300    0.516600   -2.878600 C.2      1 SUBUNIT   -0.0517
     24 C24         -10.321600    0.523300   -1.655200 C.2      1 SUBUNIT    0.0138
     25 C25          -8.917200    0.537000   -1.640900 C.2      1 SUBUNIT   -0.0624
     26 C26          -8.202500    0.543900   -2.850000 C.3      1 SUBUNIT    0.0480
     27 C27          -8.892300    0.537200   -4.073500 C.3      1 SUBUNIT    0.0452
     28 H28         -10.838600    0.518300   -5.048900 H        1 SUBUNIT    0.0583
     29 H29         -12.114700    0.505900   -2.890000 H        1 SUBUNIT    0.0631
     30 Br30        -11.302800    0.513800    0.005000 Br       1 SUBUNIT   -0.0512
     31 H31          -8.375300    0.542200   -0.679800 H        1 SUBUNIT    0.0594
@<TRIPOS>BOND
     1    1    2 2
     2    1    6 1
     3    1    7 1
     4    2    3 1
     5    3    4 2
     6    3    8 1
     7    4    5 1
     8    4   11 1
     9    5    6 2
    10    5    9 1
    11    6   10 1
    12   11   12 1
    13   11   13 2
    14   12   14 1
    15   12   15 1
    16   15   16 2
    17   15   18 1
    18   16   26 1
    19   16   19 1
    20   17   27 1
    21   17   18 2
    22   17   20 1
    23   18   21 1
    24   22   23 2
    25   22   27 1
    26   22   28 1
    27   23   24 1
    28   23   29 1
    29   24   25 2
    30   24   30 1
    31   25   26 1
    32   25   31 1
    33   26   27 1
@<SCITEGIC>ATOM_PROPERTY
Formal Charge
SciTegic.value.StringValue
1 0
2 0
3 0
4 0
5 0
6 0
7 0
8 0
9 0
10 0
11 0
12 0
13 0
14 0
15 0
16 0
17 0
18 0
19 0
20 0
21 0
22 0
23 0
24 0
25 0
26 0
27 0
28 0
29 0
30 0
31 0

@<SCITEGIC>ATOM_PROPERTY
pdb_tempFactor
SciTegic.value.DoubleValue
1 0.00
2 0.00
3 0.00
4 0.00
5 0.00
6 0.00
7 0.00
8 0.00
9 0.00
10 0.00
11 0.00
12 0.00
13 0.00
14 0.00
15 0.00
16 0.00
17 0.00
18 0.00
19 0.00
20 0.00
21 0.00
22 0.00
23 0.00
24 0.00
25 0.00
26 0.00
27 0.00
28 0.00
29 0.00
30 0.00
31 0.00

@<SCITEGIC>ATOM_PROPERTY
pdb_occupancy
SciTegic.value.DoubleValue
1 1.00
2 1.00
3 1.00
4 1.00
5 1.00
6 1.00
7 1.00
8 1.00
9 1.00
10 1.00
11 1.00
12 1.00
13 1.00
14 1.00
15 1.00
16 1.00
17 1.00
18 1.00
19 1.00
20 1.00
21 1.00
22 1.00
23 1.00
24 1.00
25 1.00
26 1.00
27 1.00
28 1.00
29 1.00
30 1.00
31 1.00

#	copyright 2023 drugdesign.org
#	Creation time:	2024-01-11T10:58:48Z

@<SCITEGIC>ROOT_PROPERTY
Ligand:MaximumNumberOfAtoms
SciTegic.value.IntegerValue
100

@<SCITEGIC>ROOT_PROPERTY
Ligand:HydrogenAtomsCountTowardsMaximum
SciTegic.value.BooleanValue
FALSE

@<TRIPOS>MOLECULE
2_bond_rotate_all.sd
   31    33     0 0 0
SMALL
USER_CHARGES


@<TRIPOS>ATOM
      1 C1            0.000000    0.000000   -2.977000 C.2      1 SUBUNIT    0.0268
      2 N2           -0.702300    1.216400   -2.977000 N.2      1 SUBUNIT   -0.2639
      3 C3           -2.106800    1.216400   -2.977000 C.2      1 SUBUNIT    0.0393
      4 C4           -2.809000    0.000000   -2.977000 C.2      1 SUBUNIT    0.0557
      5 C5           -2.106800   -1.216400   -2.977000 C.2      1 SUBUNIT   -0.0466
      6 C6           -0.702200   -1.216400   -2.977000 C.2      1 SUBUNIT   -0.0430
      7 H7            1.103400    0.000000   -2.977000 H        1 SUBUNIT    0.0840
      8 H8           -2.658500    2.172000   -2.977000 H        1 SUBUNIT    0.0848
      9 H9           -2.658500   -2.171900   -2.977000 H        1 SUBUNIT    0.0632
     10 H10          -0.150500   -2.172000   -2.977000 H        1 SUBUNIT    0.0639
     11 C11          -4.137600   -0.014300   -2.977000 C.2      1 SUBUNIT    0.2487
     12 N12          -4.821300    0.576700   -4.013400 N.am     1 SUBUNIT   -0.2816
     13 O13          -4.740700   -0.551500   -2.057800 O.2      1 SUBUNIT   -0.2715
     14 H14          -4.217900    0.992100   -4.721500 H        1 SUBUNIT    0.1560
     15 C15          -6.135200    0.564000   -4.015700 C.2      1 SUBUNIT    0.0291
     16 C16          -6.855400    1.162200   -2.968700 C.2      1 SUBUNIT   -0.0552
     17 C17          -8.223700   -0.073300   -5.088200 C.2      1 SUBUNIT   -0.0749
     18 C18          -6.819300   -0.053800   -5.075500 C.2      1 SUBUNIT   -0.0444
     19 H19          -6.317800    1.647600   -2.136200 H        1 SUBUNIT    0.0602
     20 H20          -8.761200   -0.558600   -5.920600 H        1 SUBUNIT    0.0583
     21 H21          -6.253600   -0.523800   -5.898000 H        1 SUBUNIT    0.0639
     22 C22         -10.296400    0.491300   -4.079100 C.2      1 SUBUNIT   -0.0756
     23 C23         -11.016600    1.089500   -3.032100 C.2      1 SUBUNIT   -0.0517
     24 C24         -10.332500    1.707300   -1.972400 C.2      1 SUBUNIT    0.0138
     25 C25          -8.928200    1.726800   -1.959800 C.2      1 SUBUNIT   -0.0624
     26 C26          -8.207900    1.128600   -3.006700 C.3      1 SUBUNIT    0.0480
     27 C27          -8.892100    0.510800   -4.066500 C.3      1 SUBUNIT    0.0452
     28 H28         -10.833900    0.005900   -4.911700 H        1 SUBUNIT    0.0583
     29 H29         -12.119900    1.074100   -3.042200 H        1 SUBUNIT    0.0631
     30 Br30        -11.321400    2.528700   -0.534900 Br       1 SUBUNIT   -0.0512
     31 H31          -8.390700    2.212100   -1.127200 H        1 SUBUNIT    0.0594
@<TRIPOS>BOND
     1    1    2 2
     2    1    6 1
     3    1    7 1
     4    2    3 1
     5    3    4 2
     6    3    8 1
     7    4    5 1
     8    4   11 1
     9    5    6 2
    10    5    9 1
    11    6   10 1
    12   11   12 1
    13   11   13 2
    14   12   14 1
    15   12   15 1
    16   15   16 2
    17   15   18 1
    18   16   26 1
    19   16   19 1
    20   17   27 1
    21   17   18 2
    22   17   20 1
    23   18   21 1
    24   22   23 2
    25   22   27 1
    26   22   28 1
    27   23   24 1
    28   23   29 1
    29   24   25 2
    30   24   30 1
    31   25   26 1
    32   25   31 1
    33   26   27 1
@<SCITEGIC>ATOM_PROPERTY
Formal Charge
SciTegic.value.StringValue
1 0
2 0
3 0
4 0
5 0
6 0
7 0
8 0
9 0
10 0
11 0
12 0
13 0
14 0
15 0
16 0
17 0
18 0
19 0
20 0
21 0
22 0
23 0
24 0
25 0
26 0
27 0
28 0
29 0
30 0
31 0

@<SCITEGIC>ATOM_PROPERTY
pdb_tempFactor
SciTegic.value.DoubleValue
1 0.00
2 0.00
3 0.00
4 0.00
5 0.00
6 0.00
7 0.00
8 0.00
9 0.00
10 0.00
11 0.00
12 0.00
13 0.00
14 0.00
15 0.00
16 0.00
17 0.00
18 0.00
19 0.00
20 0.00
21 0.00
22 0.00
23 0.00
24 0.00
25 0.00
26 0.00
27 0.00
28 0.00
29 0.00
30 0.00
31 0.00

@<SCITEGIC>ATOM_PROPERTY
pdb_occupancy
SciTegic.value.DoubleValue
1 1.00
2 1.00
3 1.00
4 1.00
5 1.00
6 1.00
7 1.00
8 1.00
9 1.00
10 1.00
11 1.00
12 1.00
13 1.00
14 1.00
15 1.00
16 1.00
17 1.00
18 1.00
19 1.00
20 1.00
21 1.00
22 1.00
23 1.00
24 1.00
25 1.00
26 1.00
27 1.00
28 1.00
29 1.00
30 1.00
31 1.00

#	copyright 2023 drugdesign.org
#	Creation time:	2024-01-11T10:58:48Z

@<SCITEGIC>ROOT_PROPERTY
Ligand:MaximumNumberOfAtoms
SciTegic.value.IntegerValue
100

@<SCITEGIC>ROOT_PROPERTY
Ligand:HydrogenAtomsCountTowardsMaximum
SciTegic.value.BooleanValue
FALSE

@<TRIPOS>MOLECULE
2_bond_rotate_all.sd
   31    33     0 0 0
SMALL
USER_CHARGES


@<TRIPOS>ATOM
      1 C1            0.000000    0.000000   -2.977000 C.2      1 SUBUNIT    0.0268
      2 N2           -0.702300    1.216400   -2.977000 N.2      1 SUBUNIT   -0.2639
      3 C3           -2.106800    1.216400   -2.977000 C.2      1 SUBUNIT    0.0393
      4 C4           -2.809000    0.000000   -2.977000 C.2      1 SUBUNIT    0.0557
      5 C5           -2.106800   -1.216400   -2.977000 C.2      1 SUBUNIT   -0.0466
      6 C6           -0.702200   -1.216400   -2.977000 C.2      1 SUBUNIT   -0.0430
      7 H7            1.103400    0.000000   -2.977000 H        1 SUBUNIT    0.0840
      8 H8           -2.658500    2.172000   -2.977000 H        1 SUBUNIT    0.0848
      9 H9           -2.658500   -2.171900   -2.977000 H        1 SUBUNIT    0.0632
     10 H10          -0.150500   -2.172000   -2.977000 H        1 SUBUNIT    0.0639
     11 C11          -4.137600   -0.014300   -2.977000 C.2      1 SUBUNIT    0.2487
     12 N12          -4.821300    0.576700   -4.013400 N.am     1 SUBUNIT   -0.2816
     13 O13          -4.740700   -0.551500   -2.057800 O.2      1 SUBUNIT   -0.2715
     14 H14          -4.217900    0.992100   -4.721500 H        1 SUBUNIT    0.1560
     15 C15          -6.135200    0.564000   -4.015700 C.2      1 SUBUNIT    0.0291
     16 C16          -6.858900    1.605300   -3.411800 C.2      1 SUBUNIT   -0.0552
     17 C17          -8.220200   -0.525000   -4.636500 C.2      1 SUBUNIT   -0.0749
     18 C18          -6.815800   -0.501200   -4.628100 C.2      1 SUBUNIT   -0.0444
     19 H19          -6.324100    2.442100   -2.930700 H        1 SUBUNIT    0.0602
     20 H20          -8.754900   -1.361700   -5.117500 H        1 SUBUNIT    0.0583
     21 H21          -6.247300   -1.319200   -5.102600 H        1 SUBUNIT    0.0639
     22 C22         -10.296200    0.467600   -4.055500 C.2      1 SUBUNIT   -0.0756
     23 C23         -11.019900    1.508900   -3.451600 C.2      1 SUBUNIT   -0.0517
     24 C24         -10.339400    2.574100   -2.839200 C.2      1 SUBUNIT    0.0138
     25 C25          -8.935100    2.597900   -2.830800 C.2      1 SUBUNIT   -0.0624
     26 C26          -8.211300    1.556600   -3.434700 C.3      1 SUBUNIT    0.0480
     27 C27          -8.891900    0.491400   -4.047100 C.3      1 SUBUNIT    0.0452
     28 H28         -10.830900   -0.369100   -4.536600 H        1 SUBUNIT    0.0583
     29 H29         -12.123200    1.490100   -3.458200 H        1 SUBUNIT    0.0631
     30 Br30        -11.333100    4.003800   -2.010000 Br       1 SUBUNIT   -0.0512
     31 H31          -8.400400    3.434600   -2.349800 H        1 SUBUNIT    0.0594
@<TRIPOS>BOND
     1    1    2 2
     2    1    6 1
     3    1    7 1
     4    2    3 1
     5    3    4 2
     6    3    8 1
     7    4    5 1
     8    4   11 1
     9    5    6 2
    10    5    9 1
    11    6   10 1
    12   11   12 1
    13   11   13 2
    14   12   14 1
    15   12   15 1
    16   15   16 2
    17   15   18 1
    18   16   26 1
    19   16   19 1
    20   17   27 1
    21   17   18 2
    22   17   20 1
    23   18   21 1
    24   22   23 2
    25   22   27 1
    26   22   28 1
    27   23   24 1
    28   23   29 1
    29   24   25 2
    30   24   30 1
    31   25   26 1
    32   25   31 1
    33   26   27 1
@<SCITEGIC>ATOM_PROPERTY
Formal Charge
SciTegic.value.StringValue
1 0
2 0
3 0
4 0
5 0
6 0
7 0
8 0
9 0
10 0
11 0
12 0
13 0
14 0
15 0
16 0
17 0
18 0
19 0
20 0
21 0
22 0
23 0
24 0
25 0
26 0
27 0
28 0
29 0
30 0
31 0

@<SCITEGIC>ATOM_PROPERTY
pdb_tempFactor
SciTegic.value.DoubleValue
1 0.00
2 0.00
3 0.00
4 0.00
5 0.00
6 0.00
7 0.00
8 0.00
9 0.00
10 0.00
11 0.00
12 0.00
13 0.00
14 0.00
15 0.00
16 0.00
17 0.00
18 0.00
19 0.00
20 0.00
21 0.00
22 0.00
23 0.00
24 0.00
25 0.00
26 0.00
27 0.00
28 0.00
29 0.00
30 0.00
31 0.00

@<SCITEGIC>ATOM_PROPERTY
pdb_occupancy
SciTegic.value.DoubleValue
1 1.00
2 1.00
3 1.00
4 1.00
5 1.00
6 1.00
7 1.00
8 1.00
9 1.00
10 1.00
11 1.00
12 1.00
13 1.00
14 1.00
15 1.00
16 1.00
17 1.00
18 1.00
19 1.00
20 1.00
21 1.00
22 1.00
23 1.00
24 1.00
25 1.00
26 1.00
27 1.00
28 1.00
29 1.00
30 1.00
31 1.00

#	copyright 2023 drugdesign.org
#	Creation time:	2024-01-11T10:58:48Z

@<SCITEGIC>ROOT_PROPERTY
Ligand:MaximumNumberOfAtoms
SciTegic.value.IntegerValue
100

@<SCITEGIC>ROOT_PROPERTY
Ligand:HydrogenAtomsCountTowardsMaximum
SciTegic.value.BooleanValue
FALSE

@<TRIPOS>MOLECULE
2_bond_rotate_all.sd
   31    33     0 0 0
SMALL
USER_CHARGES


@<TRIPOS>ATOM
      1 C1            0.000000    0.000000   -2.977000 C.2      1 SUBUNIT    0.0268
      2 N2           -0.702300    1.216400   -2.977000 N.2      1 SUBUNIT   -0.2639
      3 C3           -2.106800    1.216400   -2.977000 C.2      1 SUBUNIT    0.0393
      4 C4           -2.809000    0.000000   -2.977000 C.2      1 SUBUNIT    0.0557
      5 C5           -2.106800   -1.216400   -2.977000 C.2      1 SUBUNIT   -0.0466
      6 C6           -0.702200   -1.216400   -2.977000 C.2      1 SUBUNIT   -0.0430
      7 H7            1.103400    0.000000   -2.977000 H        1 SUBUNIT    0.0840
      8 H8           -2.658500    2.172000   -2.977000 H        1 SUBUNIT    0.0848
      9 H9           -2.658500   -2.171900   -2.977000 H        1 SUBUNIT    0.0632
     10 H10          -0.150500   -2.172000   -2.977000 H        1 SUBUNIT    0.0639
     11 C11          -4.137600   -0.014300   -2.977000 C.2      1 SUBUNIT    0.2487
     12 N12          -4.821300    0.576700   -4.013400 N.am     1 SUBUNIT   -0.2816
     13 O13          -4.740700   -0.551500   -2.057800 O.2      1 SUBUNIT   -0.2715
     14 H14          -4.217900    0.992100   -4.721500 H        1 SUBUNIT    0.1560
     15 C15          -6.135200    0.564000   -4.015700 C.2      1 SUBUNIT    0.0291
     16 C16          -6.859400    1.767500   -4.017000 C.2      1 SUBUNIT   -0.0552
     17 C17          -8.219700   -0.690400   -4.019500 C.2      1 SUBUNIT   -0.0749
     18 C18          -6.815300   -0.664900   -4.017000 C.2      1 SUBUNIT   -0.0444
     19 H19          -6.325000    2.732900   -4.016000 H        1 SUBUNIT    0.0602
     20 H20          -8.754000   -1.655700   -4.020500 H        1 SUBUNIT    0.0583
     21 H21          -6.246400   -1.610400   -4.016000 H        1 SUBUNIT    0.0639
     22 C22         -10.296200    0.459000   -4.023200 C.2      1 SUBUNIT   -0.0756
     23 C23         -11.020400    1.662500   -4.024500 C.2      1 SUBUNIT   -0.0517
     24 C24         -10.340300    2.891300   -4.023300 C.2      1 SUBUNIT    0.0138
     25 C25          -8.936000    2.916700   -4.020700 C.2      1 SUBUNIT   -0.0624
     26 C26          -8.211800    1.713300   -4.019400 C.3      1 SUBUNIT    0.0480
     27 C27          -8.891900    0.484400   -4.020700 C.3      1 SUBUNIT    0.0452
     28 H28         -10.830500   -0.506400   -4.024200 H        1 SUBUNIT    0.0583
     29 H29         -12.123700    1.642400   -4.026500 H        1 SUBUNIT    0.0631
     30 Br30        -11.334700    4.543700   -4.025000 Br       1 SUBUNIT   -0.0512
     31 H31          -8.401700    3.882100   -4.019700 H        1 SUBUNIT    0.0594
@<TRIPOS>BOND
     1    1    2 2
     2    1    6 1
     3    1    7 1
     4    2    3 1
     5    3    4 2
     6    3    8 1
     7    4    5 1
     8    4   11 1
     9    5    6 2
    10    5    9 1
    11    6   10 1
    12   11   12 1
    13   11   13 2
    14   12   14 1
    15   12   15 1
    16   15   16 2
    17   15   18 1
    18   16   26 1
    19   16   19 1
    20   17   27 1
    21   17   18 2
    22   17   20 1
    23   18   21 1
    24   22   23 2
    25   22   27 1
    26   22   28 1
    27   23   24 1
    28   23   29 1
    29   24   25 2
    30   24   30 1
    31   25   26 1
    32   25   31 1
    33   26   27 1
@<SCITEGIC>ATOM_PROPERTY
Formal Charge
SciTegic.value.StringValue
1 0
2 0
3 0
4 0
5 0
6 0
7 0
8 0
9 0
10 0
11 0
12 0
13 0
14 0
15 0
16 0
17 0
18 0
19 0
20 0
21 0
22 0
23 0
24 0
25 0
26 0
27 0
28 0
29 0
30 0
31 0

@<SCITEGIC>ATOM_PROPERTY
pdb_tempFactor
SciTegic.value.DoubleValue
1 0.00
2 0.00
3 0.00
4 0.00
5 0.00
6 0.00
7 0.00
8 0.00
9 0.00
10 0.00
11 0.00
12 0.00
13 0.00
14 0.00
15 0.00
16 0.00
17 0.00
18 0.00
19 0.00
20 0.00
21 0.00
22 0.00
23 0.00
24 0.00
25 0.00
26 0.00
27 0.00
28 0.00
29 0.00
30 0.00
31 0.00

@<SCITEGIC>ATOM_PROPERTY
pdb_occupancy
SciTegic.value.DoubleValue
1 1.00
2 1.00
3 1.00
4 1.00
5 1.00
6 1.00
7 1.00
8 1.00
9 1.00
10 1.00
11 1.00
12 1.00
13 1.00
14 1.00
15 1.00
16 1.00
17 1.00
18 1.00
19 1.00
20 1.00
21 1.00
22 1.00
23 1.00
24 1.00
25 1.00
26 1.00
27 1.00
28 1.00
29 1.00
30 1.00
31 1.00

#	copyright 2023 drugdesign.org
#	Creation time:	2024-01-11T10:58:48Z

@<SCITEGIC>ROOT_PROPERTY
Ligand:MaximumNumberOfAtoms
SciTegic.value.IntegerValue
100

@<SCITEGIC>ROOT_PROPERTY
Ligand:HydrogenAtomsCountTowardsMaximum
SciTegic.value.BooleanValue
FALSE

@<TRIPOS>MOLECULE
2_bond_rotate_all.sd
   31    33     0 0 0
SMALL
USER_CHARGES


@<TRIPOS>ATOM
      1 C1            0.000000    0.000000   -2.977000 C.2      1 SUBUNIT    0.0268
      2 N2           -0.702300    1.216400   -2.977000 N.2      1 SUBUNIT   -0.2639
      3 C3           -2.106800    1.216400   -2.977000 C.2      1 SUBUNIT    0.0393
      4 C4           -2.809000    0.000000   -2.977000 C.2      1 SUBUNIT    0.0557
      5 C5           -2.106800   -1.216400   -2.977000 C.2      1 SUBUNIT   -0.0466
      6 C6           -0.702200   -1.216400   -2.977000 C.2      1 SUBUNIT   -0.0430
      7 H7            1.103400    0.000000   -2.977000 H        1 SUBUNIT    0.0840
      8 H8           -2.658500    2.172000   -2.977000 H        1 SUBUNIT    0.0848
      9 H9           -2.658500   -2.171900   -2.977000 H        1 SUBUNIT    0.0632
     10 H10          -0.150500   -2.172000   -2.977000 H        1 SUBUNIT    0.0639
     11 C11          -4.137600   -0.014300   -2.977000 C.2      1 SUBUNIT    0.2487
     12 N12          -4.821300    0.576700   -4.013400 N.am     1 SUBUNIT   -0.2816
     13 O13          -4.740700   -0.551500   -2.057800 O.2      1 SUBUNIT   -0.2715
     14 H14          -4.217900    0.992100   -4.721500 H        1 SUBUNIT    0.1560
     15 C15          -6.135200    0.564000   -4.015700 C.2      1 SUBUNIT    0.0291
     16 C16          -6.856800    1.605300   -4.622200 C.2      1 SUBUNIT   -0.0552
     17 C17          -8.222400   -0.525000   -3.402500 C.2      1 SUBUNIT   -0.0749
     18 C18          -6.818000   -0.501200   -3.405900 C.2      1 SUBUNIT   -0.0444
     19 H19          -6.320200    2.442100   -5.101400 H        1 SUBUNIT    0.0602
     20 H20          -8.758800   -1.361800   -2.923400 H        1 SUBUNIT    0.0583
     21 H21          -6.251200   -1.319300   -2.929400 H        1 SUBUNIT    0.0639
     22 C22         -10.296300    0.467600   -3.990900 C.2      1 SUBUNIT   -0.0756
     23 C23         -11.017900    1.509000   -4.597400 C.2      1 SUBUNIT   -0.0517
     24 C24         -10.335100    2.574100   -5.207300 C.2      1 SUBUNIT    0.0138
     25 C25          -8.930800    2.597900   -5.210600 C.2      1 SUBUNIT   -0.0624
     26 C26          -8.209200    1.556600   -4.604200 C.3      1 SUBUNIT    0.0480
     27 C27          -8.892000    0.491400   -3.994300 C.3      1 SUBUNIT    0.0452
     28 H28         -10.832800   -0.369200   -3.511800 H        1 SUBUNIT    0.0583
     29 H29         -12.121200    1.490100   -4.594800 H        1 SUBUNIT    0.0631
     30 Br30        -11.325800    4.003800   -6.040000 Br       1 SUBUNIT   -0.0512
     31 H31          -8.394400    3.434700   -5.689700 H        1 SUBUNIT    0.0594
@<TRIPOS>BOND
     1    1    2 2
     2    1    6 1
     3    1    7 1
     4    2    3 1
     5    3    4 2
     6    3    8 1
     7    4    5 1
     8    4   11 1
     9    5    6 2
    10    5    9 1
    11    6   10 1
    12   11   12 1
    13   11   13 2
    14   12   14 1
    15   12   15 1
    16   15   16 2
    17   15   18 1
    18   16   26 1
    19   16   19 1
    20   17   27 1
    21   17   18 2
    22   17   20 1
    23   18   21 1
    24   22   23 2
    25   22   27 1
    26   22   28 1
    27   23   24 1
    28   23   29 1
    29   24   25 2
    30   24   30 1
    31   25   26 1
    32   25   31 1
    33   26   27 1
@<SCITEGIC>ATOM_PROPERTY
Formal Charge
SciTegic.value.StringValue
1 0
2 0
3 0
4 0
5 0
6 0
7 0
8 0
9 0
10 0
11 0
12 0
13 0
14 0
15 0
16 0
17 0
18 0
19 0
20 0
21 0
22 0
23 0
24 0
25 0
26 0
27 0
28 0
29 0
30 0
31 0

@<SCITEGIC>ATOM_PROPERTY
pdb_tempFactor
SciTegic.value.DoubleValue
1 0.00
2 0.00
3 0.00
4 0.00
5 0.00
6 0.00
7 0.00
8 0.00
9 0.00
10 0.00
11 0.00
12 0.00
13 0.00
14 0.00
15 0.00
16 0.00
17 0.00
18 0.00
19 0.00
20 0.00
21 0.00
22 0.00
23 0.00
24 0.00
25 0.00
26 0.00
27 0.00
28 0.00
29 0.00
30 0.00
31 0.00

@<SCITEGIC>ATOM_PROPERTY
pdb_occupancy
SciTegic.value.DoubleValue
1 1.00
2 1.00
3 1.00
4 1.00
5 1.00
6 1.00
7 1.00
8 1.00
9 1.00
10 1.00
11 1.00
12 1.00
13 1.00
14 1.00
15 1.00
16 1.00
17 1.00
18 1.00
19 1.00
20 1.00
21 1.00
22 1.00
23 1.00
24 1.00
25 1.00
26 1.00
27 1.00
28 1.00
29 1.00
30 1.00
31 1.00

#	copyright 2023 drugdesign.org
#	Creation time:	2024-01-11T10:58:48Z

@<SCITEGIC>ROOT_PROPERTY
Ligand:MaximumNumberOfAtoms
SciTegic.value.IntegerValue
100

@<SCITEGIC>ROOT_PROPERTY
Ligand:HydrogenAtomsCountTowardsMaximum
SciTegic.value.BooleanValue
FALSE

@<TRIPOS>MOLECULE
2_bond_rotate_all.sd
   31    33     0 0 0
SMALL
USER_CHARGES


@<TRIPOS>ATOM
      1 C1            0.000000    0.000000   -2.977000 C.2      1 SUBUNIT    0.0268
      2 N2           -0.702300    1.216400   -2.977000 N.2      1 SUBUNIT   -0.2639
      3 C3           -2.106800    1.216400   -2.977000 C.2      1 SUBUNIT    0.0393
      4 C4           -2.809000    0.000000   -2.977000 C.2      1 SUBUNIT    0.0557
      5 C5           -2.106800   -1.216400   -2.977000 C.2      1 SUBUNIT   -0.0466
      6 C6           -0.702200   -1.216400   -2.977000 C.2      1 SUBUNIT   -0.0430
      7 H7            1.103400    0.000000   -2.977000 H        1 SUBUNIT    0.0840
      8 H8           -2.658500    2.172000   -2.977000 H        1 SUBUNIT    0.0848
      9 H9           -2.658500   -2.171900   -2.977000 H        1 SUBUNIT    0.0632
     10 H10          -0.150500   -2.172000   -2.977000 H        1 SUBUNIT    0.0639
     11 C11          -4.137600   -0.014300   -2.977000 C.2      1 SUBUNIT    0.2487
     12 N12          -4.821300    0.576700   -4.013400 N.am     1 SUBUNIT   -0.2816
     13 O13          -4.740700   -0.551500   -2.057800 O.2      1 SUBUNIT   -0.2715
     14 H14          -4.217900    0.992100   -4.721500 H        1 SUBUNIT    0.1560
     15 C15          -6.135200    0.564000   -4.015700 C.2      1 SUBUNIT    0.0291
     16 C16          -6.851700    1.162300   -5.065300 C.2      1 SUBUNIT   -0.0552
     17 C17          -8.227600   -0.073400   -2.950800 C.2      1 SUBUNIT   -0.0749
     18 C18          -6.823100   -0.053900   -2.958500 C.2      1 SUBUNIT   -0.0444
     19 H19          -6.311100    1.647700   -5.895900 H        1 SUBUNIT    0.0602
     20 H20          -8.768100   -0.558700   -2.120300 H        1 SUBUNIT    0.0583
     21 H21          -6.260300   -0.523900   -2.133900 H        1 SUBUNIT    0.0639
     22 C22         -10.296600    0.491300   -3.967300 C.2      1 SUBUNIT   -0.0756
     23 C23         -11.013100    1.089600   -5.016900 C.2      1 SUBUNIT   -0.0517
     24 C24         -10.325100    1.707400   -6.074100 C.2      1 SUBUNIT    0.0138
     25 C25          -8.920700    1.726900   -6.081700 C.2      1 SUBUNIT   -0.0624
     26 C26          -8.204300    1.128600   -5.032200 C.3      1 SUBUNIT    0.0480
     27 C27          -8.892200    0.510800   -3.974900 C.3      1 SUBUNIT    0.0452
     28 H28         -10.837100    0.005900   -3.136700 H        1 SUBUNIT    0.0583
     29 H29         -12.116400    1.074200   -5.010800 H        1 SUBUNIT    0.0631
     30 Br30        -11.308800    2.528800   -7.515100 Br       1 SUBUNIT   -0.0512
     31 H31          -8.380300    2.212200   -6.912300 H        1 SUBUNIT    0.0594
@<TRIPOS>BOND
     1    1    2 2
     2    1    6 1
     3    1    7 1
     4    2    3 1
     5    3    4 2
     6    3    8 1
     7    4    5 1
     8    4   11 1
     9    5    6 2
    10    5    9 1
    11    6   10 1
    12   11   12 1
    13   11   13 2
    14   12   14 1
    15   12   15 1
    16   15   16 2
    17   15   18 1
    18   16   26 1
    19   16   19 1
    20   17   27 1
    21   17   18 2
    22   17   20 1
    23   18   21 1
    24   22   23 2
    25   22   27 1
    26   22   28 1
    27   23   24 1
    28   23   29 1
    29   24   25 2
    30   24   30 1
    31   25   26 1
    32   25   31 1
    33   26   27 1
@<SCITEGIC>ATOM_PROPERTY
Formal Charge
SciTegic.value.StringValue
1 0
2 0
3 0
4 0
5 0
6 0
7 0
8 0
9 0
10 0
11 0
12 0
13 0
14 0
15 0
16 0
17 0
18 0
19 0
20 0
21 0
22 0
23 0
24 0
25 0
26 0
27 0
28 0
29 0
30 0
31 0

@<SCITEGIC>ATOM_PROPERTY
pdb_tempFactor
SciTegic.value.DoubleValue
1 0.00
2 0.00
3 0.00
4 0.00
5 0.00
6 0.00
7 0.00
8 0.00
9 0.00
10 0.00
11 0.00
12 0.00
13 0.00
14 0.00
15 0.00
16 0.00
17 0.00
18 0.00
19 0.00
20 0.00
21 0.00
22 0.00
23 0.00
24 0.00
25 0.00
26 0.00
27 0.00
28 0.00
29 0.00
30 0.00
31 0.00

@<SCITEGIC>ATOM_PROPERTY
pdb_occupancy
SciTegic.value.DoubleValue
1 1.00
2 1.00
3 1.00
4 1.00
5 1.00
6 1.00
7 1.00
8 1.00
9 1.00
10 1.00
11 1.00
12 1.00
13 1.00
14 1.00
15 1.00
16 1.00
17 1.00
18 1.00
19 1.00
20 1.00
21 1.00
22 1.00
23 1.00
24 1.00
25 1.00
26 1.00
27 1.00
28 1.00
29 1.00
30 1.00
31 1.00

#	copyright 2023 drugdesign.org
#	Creation time:	2024-01-11T10:58:48Z

@<SCITEGIC>ROOT_PROPERTY
Ligand:MaximumNumberOfAtoms
SciTegic.value.IntegerValue
100

@<SCITEGIC>ROOT_PROPERTY
Ligand:HydrogenAtomsCountTowardsMaximum
SciTegic.value.BooleanValue
FALSE

@<TRIPOS>MOLECULE
2_bond_rotate_all.sd
   31    33     0 0 0
SMALL
USER_CHARGES


@<TRIPOS>ATOM
      1 C1            0.000000    0.000000   -2.977000 C.2      1 SUBUNIT    0.0268
      2 N2           -0.702300    1.216400   -2.977000 N.2      1 SUBUNIT   -0.2639
      3 C3           -2.106800    1.216400   -2.977000 C.2      1 SUBUNIT    0.0393
      4 C4           -2.809000    0.000000   -2.977000 C.2      1 SUBUNIT    0.0557
      5 C5           -2.106800   -1.216400   -2.977000 C.2      1 SUBUNIT   -0.0466
      6 C6           -0.702200   -1.216400   -2.977000 C.2      1 SUBUNIT   -0.0430
      7 H7            1.103400    0.000000   -2.977000 H        1 SUBUNIT    0.0840
      8 H8           -2.658500    2.172000   -2.977000 H        1 SUBUNIT    0.0848
      9 H9           -2.658500   -2.171900   -2.977000 H        1 SUBUNIT    0.0632
     10 H10          -0.150500   -2.172000   -2.977000 H        1 SUBUNIT    0.0639
     11 C11          -4.137600   -0.014300   -2.977000 C.2      1 SUBUNIT    0.2487
     12 N12          -4.821300    0.576700   -4.013400 N.am     1 SUBUNIT   -0.2816
     13 O13          -4.740700   -0.551500   -2.057800 O.2      1 SUBUNIT   -0.2715
     14 H14          -4.217900    0.992100   -4.721500 H        1 SUBUNIT    0.1560
     15 C15          -6.135200    0.564000   -4.015700 C.2      1 SUBUNIT    0.0291
     16 C16          -6.845500    0.557100   -5.227500 C.2      1 SUBUNIT   -0.0552
     17 C17          -8.233900    0.543600   -2.785500 C.2      1 SUBUNIT   -0.0749
     18 C18          -6.829400    0.557200   -2.794700 C.2      1 SUBUNIT   -0.0444
     19 H19          -6.300000    0.562400   -6.186700 H        1 SUBUNIT    0.0602
     20 H20          -8.779200    0.538300   -1.826400 H        1 SUBUNIT    0.0583
     21 H21          -6.271400    0.562600   -1.842800 H        1 SUBUNIT    0.0639
     22 C22         -10.296900    0.523500   -3.958600 C.2      1 SUBUNIT   -0.0756
     23 C23         -11.007200    0.516700   -5.170400 C.2      1 SUBUNIT   -0.0517
     24 C24         -10.313000    0.523400   -6.391300 C.2      1 SUBUNIT    0.0138
     25 C25          -8.908600    0.537000   -6.400500 C.2      1 SUBUNIT   -0.0624
     26 C26          -8.198300    0.543900   -5.188900 C.3      1 SUBUNIT    0.0480
     27 C27          -8.892500    0.537200   -3.967800 C.3      1 SUBUNIT    0.0452
     28 H28         -10.842300    0.518200   -2.999400 H        1 SUBUNIT    0.0583
     29 H29         -12.110600    0.505900   -5.163000 H        1 SUBUNIT    0.0631
     30 Br30        -11.288300    0.513900   -8.055100 Br       1 SUBUNIT   -0.0512
     31 H31          -8.363300    0.542300   -7.359700 H        1 SUBUNIT    0.0594
@<TRIPOS>BOND
     1    1    2 2
     2    1    6 1
     3    1    7 1
     4    2    3 1
     5    3    4 2
     6    3    8 1
     7    4    5 1
     8    4   11 1
     9    5    6 2
    10    5    9 1
    11    6   10 1
    12   11   12 1
    13   11   13 2
    14   12   14 1
    15   12   15 1
    16   15   16 2
    17   15   18 1
    18   16   26 1
    19   16   19 1
    20   17   27 1
    21   17   18 2
    22   17   20 1
    23   18   21 1
    24   22   23 2
    25   22   27 1
    26   22   28 1
    27   23   24 1
    28   23   29 1
    29   24   25 2
    30   24   30 1
    31   25   26 1
    32   25   31 1
    33   26   27 1
@<SCITEGIC>ATOM_PROPERTY
Formal Charge
SciTegic.value.StringValue
1 0
2 0
3 0
4 0
5 0
6 0
7 0
8 0
9 0
10 0
11 0
12 0
13 0
14 0
15 0
16 0
17 0
18 0
19 0
20 0
21 0
22 0
23 0
24 0
25 0
26 0
27 0
28 0
29 0
30 0
31 0

@<SCITEGIC>ATOM_PROPERTY
pdb_tempFactor
SciTegic.value.DoubleValue
1 0.00
2 0.00
3 0.00
4 0.00
5 0.00
6 0.00
7 0.00
8 0.00
9 0.00
10 0.00
11 0.00
12 0.00
13 0.00
14 0.00
15 0.00
16 0.00
17 0.00
18 0.00
19 0.00
20 0.00
21 0.00
22 0.00
23 0.00
24 0.00
25 0.00
26 0.00
27 0.00
28 0.00
29 0.00
30 0.00
31 0.00

@<SCITEGIC>ATOM_PROPERTY
pdb_occupancy
SciTegic.value.DoubleValue
1 1.00
2 1.00
3 1.00
4 1.00
5 1.00
6 1.00
7 1.00
8 1.00
9 1.00
10 1.00
11 1.00
12 1.00
13 1.00
14 1.00
15 1.00
16 1.00
17 1.00
18 1.00
19 1.00
20 1.00
21 1.00
22 1.00
23 1.00
24 1.00
25 1.00
26 1.00
27 1.00
28 1.00
29 1.00
30 1.00
31 1.00

#	copyright 2023 drugdesign.org
#	Creation time:	2024-01-11T10:58:48Z

@<SCITEGIC>ROOT_PROPERTY
Ligand:MaximumNumberOfAtoms
SciTegic.value.IntegerValue
100

@<SCITEGIC>ROOT_PROPERTY
Ligand:HydrogenAtomsCountTowardsMaximum
SciTegic.value.BooleanValue
FALSE

@<TRIPOS>MOLECULE
2_bond_rotate_all.sd
   31    33     0 0 0
SMALL
USER_CHARGES


@<TRIPOS>ATOM
      1 C1            0.000000    0.000000   -2.977000 C.2      1 SUBUNIT    0.0268
      2 N2           -0.702300    1.216400   -2.977000 N.2      1 SUBUNIT   -0.2639
      3 C3           -2.106800    1.216400   -2.977000 C.2      1 SUBUNIT    0.0393
      4 C4           -2.809000    0.000000   -2.977000 C.2      1 SUBUNIT    0.0557
      5 C5           -2.106800   -1.216400   -2.977000 C.2      1 SUBUNIT   -0.0466
      6 C6           -0.702200   -1.216400   -2.977000 C.2      1 SUBUNIT   -0.0430
      7 H7            1.103400    0.000000   -2.977000 H        1 SUBUNIT    0.0840
      8 H8           -2.658500    2.172000   -2.977000 H        1 SUBUNIT    0.0848
      9 H9           -2.658500   -2.171900   -2.977000 H        1 SUBUNIT    0.0632
     10 H10          -0.150500   -2.172000   -2.977000 H        1 SUBUNIT    0.0639
     11 C11          -4.137600   -0.014300   -2.977000 C.2      1 SUBUNIT    0.2487
     12 N12          -4.821300    0.576700   -4.013400 N.am     1 SUBUNIT   -0.2816
     13 O13          -4.740700   -0.551500   -2.057800 O.2      1 SUBUNIT   -0.2715
     14 H14          -4.217900    0.992100   -4.721500 H        1 SUBUNIT    0.1560
     15 C15          -6.135200    0.564000   -4.015700 C.2      1 SUBUNIT    0.0291
     16 C16          -6.839900   -0.048100   -5.065300 C.2      1 SUBUNIT   -0.0552
     17 C17          -8.239600    1.160600   -2.950800 C.2      1 SUBUNIT   -0.0749
     18 C18          -6.835000    1.168300   -2.958500 C.2      1 SUBUNIT   -0.0444
     19 H19          -6.290000   -0.522900   -5.895900 H        1 SUBUNIT    0.0602
     20 H20          -8.789400    1.635300   -2.120300 H        1 SUBUNIT    0.0583
     21 H21          -6.281400    1.649200   -2.133900 H        1 SUBUNIT    0.0639
     22 C22         -10.297200    0.555800   -3.967300 C.2      1 SUBUNIT   -0.0756
     23 C23         -11.001900   -0.056300   -5.016900 C.2      1 SUBUNIT   -0.0517
     24 C24         -10.302100   -0.660600   -6.074100 C.2      1 SUBUNIT    0.0138
     25 C25          -8.897600   -0.652800   -6.081700 C.2      1 SUBUNIT   -0.0624
     26 C26          -8.192900   -0.040800   -5.032200 C.3      1 SUBUNIT    0.0480
     27 C27          -8.892700    0.563600   -3.974900 C.3      1 SUBUNIT    0.0452
     28 H28         -10.847000    1.030600   -3.136700 H        1 SUBUNIT    0.0583
     29 H29         -12.105400   -0.062300   -5.010800 H        1 SUBUNIT    0.0631
     30 Br30        -11.269700   -1.501000   -7.515100 Br       1 SUBUNIT   -0.0512
     31 H31          -8.347800   -1.127600   -6.912300 H        1 SUBUNIT    0.0594
@<TRIPOS>BOND
     1    1    2 2
     2    1    6 1
     3    1    7 1
     4    2    3 1
     5    3    4 2
     6    3    8 1
     7    4    5 1
     8    4   11 1
     9    5    6 2
    10    5    9 1
    11    6   10 1
    12   11   12 1
    13   11   13 2
    14   12   14 1
    15   12   15 1
    16   15   16 2
    17   15   18 1
    18   16   26 1
    19   16   19 1
    20   17   27 1
    21   17   18 2
    22   17   20 1
    23   18   21 1
    24   22   23 2
    25   22   27 1
    26   22   28 1
    27   23   24 1
    28   23   29 1
    29   24   25 2
    30   24   30 1
    31   25   26 1
    32   25   31 1
    33   26   27 1
@<SCITEGIC>ATOM_PROPERTY
Formal Charge
SciTegic.value.StringValue
1 0
2 0
3 0
4 0
5 0
6 0
7 0
8 0
9 0
10 0
11 0
12 0
13 0
14 0
15 0
16 0
17 0
18 0
19 0
20 0
21 0
22 0
23 0
24 0
25 0
26 0
27 0
28 0
29 0
30 0
31 0

@<SCITEGIC>ATOM_PROPERTY
pdb_tempFactor
SciTegic.value.DoubleValue
1 0.00
2 0.00
3 0.00
4 0.00
5 0.00
6 0.00
7 0.00
8 0.00
9 0.00
10 0.00
11 0.00
12 0.00
13 0.00
14 0.00
15 0.00
16 0.00
17 0.00
18 0.00
19 0.00
20 0.00
21 0.00
22 0.00
23 0.00
24 0.00
25 0.00
26 0.00
27 0.00
28 0.00
29 0.00
30 0.00
31 0.00

@<SCITEGIC>ATOM_PROPERTY
pdb_occupancy
SciTegic.value.DoubleValue
1 1.00
2 1.00
3 1.00
4 1.00
5 1.00
6 1.00
7 1.00
8 1.00
9 1.00
10 1.00
11 1.00
12 1.00
13 1.00
14 1.00
15 1.00
16 1.00
17 1.00
18 1.00
19 1.00
20 1.00
21 1.00
22 1.00
23 1.00
24 1.00
25 1.00
26 1.00
27 1.00
28 1.00
29 1.00
30 1.00
31 1.00

#	copyright 2023 drugdesign.org
#	Creation time:	2024-01-11T10:58:48Z

@<SCITEGIC>ROOT_PROPERTY
Ligand:MaximumNumberOfAtoms
SciTegic.value.IntegerValue
100

@<SCITEGIC>ROOT_PROPERTY
Ligand:HydrogenAtomsCountTowardsMaximum
SciTegic.value.BooleanValue
FALSE

@<TRIPOS>MOLECULE
2_bond_rotate_all.sd
   31    33     0 0 0
SMALL
USER_CHARGES


@<TRIPOS>ATOM
      1 C1            0.000000    0.000000   -2.977000 C.2      1 SUBUNIT    0.0268
      2 N2           -0.702300    1.216400   -2.977000 N.2      1 SUBUNIT   -0.2639
      3 C3           -2.106800    1.216400   -2.977000 C.2      1 SUBUNIT    0.0393
      4 C4           -2.809000    0.000000   -2.977000 C.2      1 SUBUNIT    0.0557
      5 C5           -2.106800   -1.216400   -2.977000 C.2      1 SUBUNIT   -0.0466
      6 C6           -0.702200   -1.216400   -2.977000 C.2      1 SUBUNIT   -0.0430
      7 H7            1.103400    0.000000   -2.977000 H        1 SUBUNIT    0.0840
      8 H8           -2.658500    2.172000   -2.977000 H        1 SUBUNIT    0.0848
      9 H9           -2.658500   -2.171900   -2.977000 H        1 SUBUNIT    0.0632
     10 H10          -0.150500   -2.172000   -2.977000 H        1 SUBUNIT    0.0639
     11 C11          -4.137600   -0.014300   -2.977000 C.2      1 SUBUNIT    0.2487
     12 N12          -4.821300    0.576700   -4.013400 N.am     1 SUBUNIT   -0.2816
     13 O13          -4.740700   -0.551500   -2.057800 O.2      1 SUBUNIT   -0.2715
     14 H14          -4.217900    0.992100   -4.721500 H        1 SUBUNIT    0.1560
     15 C15          -6.135200    0.564000   -4.015700 C.2      1 SUBUNIT    0.0291
     16 C16          -6.836400   -0.491200   -4.622200 C.2      1 SUBUNIT   -0.0552
     17 C17          -8.243100    1.612200   -3.402500 C.2      1 SUBUNIT   -0.0749
     18 C18          -6.838500    1.615700   -3.405800 C.2      1 SUBUNIT   -0.0444
     19 H19          -6.283700   -1.317400   -5.101400 H        1 SUBUNIT    0.0602
     20 H20          -8.795700    2.438400   -2.923400 H        1 SUBUNIT    0.0583
     21 H21          -6.287700    2.444600   -2.929400 H        1 SUBUNIT    0.0639
     22 C22         -10.297400    0.579500   -3.990900 C.2      1 SUBUNIT   -0.0756
     23 C23         -10.998600   -0.475700   -4.597400 C.2      1 SUBUNIT   -0.0517
     24 C24         -10.295300   -1.527300   -5.207300 C.2      1 SUBUNIT    0.0138
     25 C25          -8.890700   -1.523900   -5.210600 C.2      1 SUBUNIT   -0.0624
     26 C26          -8.189500   -0.468800   -4.604200 C.3      1 SUBUNIT    0.0480
     27 C27          -8.892900    0.583000   -3.994300 C.3      1 SUBUNIT    0.0452
     28 H28         -10.850000    1.405700   -3.511800 H        1 SUBUNIT    0.0583
     29 H29         -12.102100   -0.478300   -4.594800 H        1 SUBUNIT    0.0631
     30 Br30        -11.258000   -2.976100   -6.040000 Br       1 SUBUNIT   -0.0512
     31 H31          -8.338200   -2.350100   -5.689700 H        1 SUBUNIT    0.0594
@<TRIPOS>BOND
     1    1    2 2
     2    1    6 1
     3    1    7 1
     4    2    3 1
     5    3    4 2
     6    3    8 1
     7    4    5 1
     8    4   11 1
     9    5    6 2
    10    5    9 1
    11    6   10 1
    12   11   12 1
    13   11   13 2
    14   12   14 1
    15   12   15 1
    16   15   16 2
    17   15   18 1
    18   16   26 1
    19   16   19 1
    20   17   27 1
    21   17   18 2
    22   17   20 1
    23   18   21 1
    24   22   23 2
    25   22   27 1
    26   22   28 1
    27   23   24 1
    28   23   29 1
    29   24   25 2
    30   24   30 1
    31   25   26 1
    32   25   31 1
    33   26   27 1
@<SCITEGIC>ATOM_PROPERTY
Formal Charge
SciTegic.value.StringValue
1 0
2 0
3 0
4 0
5 0
6 0
7 0
8 0
9 0
10 0
11 0
12 0
13 0
14 0
15 0
16 0
17 0
18 0
19 0
20 0
21 0
22 0
23 0
24 0
25 0
26 0
27 0
28 0
29 0
30 0
31 0

@<SCITEGIC>ATOM_PROPERTY
pdb_tempFactor
SciTegic.value.DoubleValue
1 0.00
2 0.00
3 0.00
4 0.00
5 0.00
6 0.00
7 0.00
8 0.00
9 0.00
10 0.00
11 0.00
12 0.00
13 0.00
14 0.00
15 0.00
16 0.00
17 0.00
18 0.00
19 0.00
20 0.00
21 0.00
22 0.00
23 0.00
24 0.00
25 0.00
26 0.00
27 0.00
28 0.00
29 0.00
30 0.00
31 0.00

@<SCITEGIC>ATOM_PROPERTY
pdb_occupancy
SciTegic.value.DoubleValue
1 1.00
2 1.00
3 1.00
4 1.00
5 1.00
6 1.00
7 1.00
8 1.00
9 1.00
10 1.00
11 1.00
12 1.00
13 1.00
14 1.00
15 1.00
16 1.00
17 1.00
18 1.00
19 1.00
20 1.00
21 1.00
22 1.00
23 1.00
24 1.00
25 1.00
26 1.00
27 1.00
28 1.00
29 1.00
30 1.00
31 1.00

#	copyright 2023 drugdesign.org
#	Creation time:	2024-01-11T10:58:48Z

@<SCITEGIC>ROOT_PROPERTY
Ligand:MaximumNumberOfAtoms
SciTegic.value.IntegerValue
100

@<SCITEGIC>ROOT_PROPERTY
Ligand:HydrogenAtomsCountTowardsMaximum
SciTegic.value.BooleanValue
FALSE

@<TRIPOS>MOLECULE
2_bond_rotate_all.sd
   31    33     0 0 0
SMALL
USER_CHARGES


@<TRIPOS>ATOM
      1 C1            0.000000    0.000000   -2.977000 C.2      1 SUBUNIT    0.0268
      2 N2           -0.702300    1.216400   -2.977000 N.2      1 SUBUNIT   -0.2639
      3 C3           -2.106800    1.216400   -2.977000 C.2      1 SUBUNIT    0.0393
      4 C4           -2.809000    0.000000   -2.977000 C.2      1 SUBUNIT    0.0557
      5 C5           -2.106800   -1.216400   -2.977000 C.2      1 SUBUNIT   -0.0466
      6 C6           -0.702200   -1.216400   -2.977000 C.2      1 SUBUNIT   -0.0430
      7 H7            1.103400    0.000000   -2.977000 H        1 SUBUNIT    0.0840
      8 H8           -2.658500    2.172000   -2.977000 H        1 SUBUNIT    0.0848
      9 H9           -2.658500   -2.171900   -2.977000 H        1 SUBUNIT    0.0632
     10 H10          -0.150500   -2.172000   -2.977000 H        1 SUBUNIT    0.0639
     11 C11          -4.137600   -0.014300   -2.977000 C.2      1 SUBUNIT    0.2487
     12 N12          -4.821300    0.576700   -4.013400 N.am     1 SUBUNIT   -0.2816
     13 O13          -4.740700   -0.551500   -2.057800 O.2      1 SUBUNIT   -0.2715
     14 H14          -4.217900    0.992100   -4.721500 H        1 SUBUNIT    0.1560
     15 C15          -6.135200    0.564000   -4.015700 C.2      1 SUBUNIT    0.0291
     16 C16          -6.835900   -0.653400   -4.017000 C.2      1 SUBUNIT   -0.0552
     17 C17          -8.243600    1.777600   -4.019500 C.2      1 SUBUNIT   -0.0749
     18 C18          -6.839000    1.779400   -4.017000 C.2      1 SUBUNIT   -0.0444
     19 H19          -6.282800   -1.608200   -4.016000 H        1 SUBUNIT    0.0602
     20 H20          -8.796600    2.732300   -4.020500 H        1 SUBUNIT    0.0583
     21 H21          -6.288600    2.735800   -4.016000 H        1 SUBUNIT    0.0639
     22 C22         -10.297500    0.588100   -4.023200 C.2      1 SUBUNIT   -0.0756
     23 C23         -10.998100   -0.629200   -4.024500 C.2      1 SUBUNIT   -0.0517
     24 C24         -10.294300   -1.844600   -4.023300 C.2      1 SUBUNIT    0.0138
     25 C25          -8.889800   -1.842700   -4.020700 C.2      1 SUBUNIT   -0.0624
     26 C26          -8.189000   -0.625500   -4.019400 C.3      1 SUBUNIT    0.0480
     27 C27          -8.892900    0.590000   -4.020700 C.3      1 SUBUNIT    0.0452
     28 H28         -10.850400    1.543000   -4.024200 H        1 SUBUNIT    0.0583
     29 H29         -12.101600   -0.630600   -4.026500 H        1 SUBUNIT    0.0631
     30 Br30        -11.256400   -3.516000   -4.025000 Br       1 SUBUNIT   -0.0512
     31 H31          -8.336800   -2.797600   -4.019800 H        1 SUBUNIT    0.0594
@<TRIPOS>BOND
     1    1    2 2
     2    1    6 1
     3    1    7 1
     4    2    3 1
     5    3    4 2
     6    3    8 1
     7    4    5 1
     8    4   11 1
     9    5    6 2
    10    5    9 1
    11    6   10 1
    12   11   12 1
    13   11   13 2
    14   12   14 1
    15   12   15 1
    16   15   16 2
    17   15   18 1
    18   16   26 1
    19   16   19 1
    20   17   27 1
    21   17   18 2
    22   17   20 1
    23   18   21 1
    24   22   23 2
    25   22   27 1
    26   22   28 1
    27   23   24 1
    28   23   29 1
    29   24   25 2
    30   24   30 1
    31   25   26 1
    32   25   31 1
    33   26   27 1
@<SCITEGIC>ATOM_PROPERTY
Formal Charge
SciTegic.value.StringValue
1 0
2 0
3 0
4 0
5 0
6 0
7 0
8 0
9 0
10 0
11 0
12 0
13 0
14 0
15 0
16 0
17 0
18 0
19 0
20 0
21 0
22 0
23 0
24 0
25 0
26 0
27 0
28 0
29 0
30 0
31 0

@<SCITEGIC>ATOM_PROPERTY
pdb_tempFactor
SciTegic.value.DoubleValue
1 0.00
2 0.00
3 0.00
4 0.00
5 0.00
6 0.00
7 0.00
8 0.00
9 0.00
10 0.00
11 0.00
12 0.00
13 0.00
14 0.00
15 0.00
16 0.00
17 0.00
18 0.00
19 0.00
20 0.00
21 0.00
22 0.00
23 0.00
24 0.00
25 0.00
26 0.00
27 0.00
28 0.00
29 0.00
30 0.00
31 0.00

@<SCITEGIC>ATOM_PROPERTY
pdb_occupancy
SciTegic.value.DoubleValue
1 1.00
2 1.00
3 1.00
4 1.00
5 1.00
6 1.00
7 1.00
8 1.00
9 1.00
10 1.00
11 1.00
12 1.00
13 1.00
14 1.00
15 1.00
16 1.00
17 1.00
18 1.00
19 1.00
20 1.00
21 1.00
22 1.00
23 1.00
24 1.00
25 1.00
26 1.00
27 1.00
28 1.00
29 1.00
30 1.00
31 1.00

#	copyright 2023 drugdesign.org
#	Creation time:	2024-01-11T10:58:48Z

@<SCITEGIC>ROOT_PROPERTY
Ligand:MaximumNumberOfAtoms
SciTegic.value.IntegerValue
100

@<SCITEGIC>ROOT_PROPERTY
Ligand:HydrogenAtomsCountTowardsMaximum
SciTegic.value.BooleanValue
FALSE

@<TRIPOS>MOLECULE
2_bond_rotate_all.sd
   31    33     0 0 0
SMALL
USER_CHARGES


@<TRIPOS>ATOM
      1 C1            0.000000    0.000000   -2.977000 C.2      1 SUBUNIT    0.0268
      2 N2           -0.702300    1.216400   -2.977000 N.2      1 SUBUNIT   -0.2639
      3 C3           -2.106800    1.216400   -2.977000 C.2      1 SUBUNIT    0.0393
      4 C4           -2.809000    0.000000   -2.977000 C.2      1 SUBUNIT    0.0557
      5 C5           -2.106800   -1.216400   -2.977000 C.2      1 SUBUNIT   -0.0466
      6 C6           -0.702200   -1.216400   -2.977000 C.2      1 SUBUNIT   -0.0430
      7 H7            1.103400    0.000000   -2.977000 H        1 SUBUNIT    0.0840
      8 H8           -2.658500    2.172000   -2.977000 H        1 SUBUNIT    0.0848
      9 H9           -2.658500   -2.171900   -2.977000 H        1 SUBUNIT    0.0632
     10 H10          -0.150500   -2.172000   -2.977000 H        1 SUBUNIT    0.0639
     11 C11          -4.137600   -0.014300   -2.977000 C.2      1 SUBUNIT    0.2487
     12 N12          -4.821300    0.576700   -4.013400 N.am     1 SUBUNIT   -0.2816
     13 O13          -4.740700   -0.551500   -2.057800 O.2      1 SUBUNIT   -0.2715
     14 H14          -4.217900    0.992100   -4.721500 H        1 SUBUNIT    0.1560
     15 C15          -6.135200    0.564000   -4.015700 C.2      1 SUBUNIT    0.0291
     16 C16          -6.838600   -0.491200   -3.411800 C.2      1 SUBUNIT   -0.0552
     17 C17          -8.240900    1.612300   -4.636500 C.2      1 SUBUNIT   -0.0749
     18 C18          -6.836300    1.615700   -4.628100 C.2      1 SUBUNIT   -0.0444
     19 H19          -6.287600   -1.317400   -2.930700 H        1 SUBUNIT    0.0602
     20 H20          -8.791800    2.438400   -5.117500 H        1 SUBUNIT    0.0583
     21 H21          -6.283800    2.444700   -5.102600 H        1 SUBUNIT    0.0639
     22 C22         -10.297300    0.579500   -4.055500 C.2      1 SUBUNIT   -0.0756
     23 C23         -11.000700   -0.475700   -3.451600 C.2      1 SUBUNIT   -0.0517
     24 C24         -10.299500   -1.527400   -2.839200 C.2      1 SUBUNIT    0.0138
     25 C25          -8.895000   -1.523900   -2.830800 C.2      1 SUBUNIT   -0.0624
     26 C26          -8.191600   -0.468800   -3.434700 C.3      1 SUBUNIT    0.0480
     27 C27          -8.892800    0.583000   -4.047100 C.3      1 SUBUNIT    0.0452
     28 H28         -10.848100    1.405700   -4.536600 H        1 SUBUNIT    0.0583
     29 H29         -12.104100   -0.478300   -3.458200 H        1 SUBUNIT    0.0631
     30 Br30        -11.265300   -2.976100   -2.010000 Br       1 SUBUNIT   -0.0512
     31 H31          -8.344200   -2.350100   -2.349800 H        1 SUBUNIT    0.0594
@<TRIPOS>BOND
     1    1    2 2
     2    1    6 1
     3    1    7 1
     4    2    3 1
     5    3    4 2
     6    3    8 1
     7    4    5 1
     8    4   11 1
     9    5    6 2
    10    5    9 1
    11    6   10 1
    12   11   12 1
    13   11   13 2
    14   12   14 1
    15   12   15 1
    16   15   16 2
    17   15   18 1
    18   16   26 1
    19   16   19 1
    20   17   27 1
    21   17   18 2
    22   17   20 1
    23   18   21 1
    24   22   23 2
    25   22   27 1
    26   22   28 1
    27   23   24 1
    28   23   29 1
    29   24   25 2
    30   24   30 1
    31   25   26 1
    32   25   31 1
    33   26   27 1
@<SCITEGIC>ATOM_PROPERTY
Formal Charge
SciTegic.value.StringValue
1 0
2 0
3 0
4 0
5 0
6 0
7 0
8 0
9 0
10 0
11 0
12 0
13 0
14 0
15 0
16 0
17 0
18 0
19 0
20 0
21 0
22 0
23 0
24 0
25 0
26 0
27 0
28 0
29 0
30 0
31 0

@<SCITEGIC>ATOM_PROPERTY
pdb_tempFactor
SciTegic.value.DoubleValue
1 0.00
2 0.00
3 0.00
4 0.00
5 0.00
6 0.00
7 0.00
8 0.00
9 0.00
10 0.00
11 0.00
12 0.00
13 0.00
14 0.00
15 0.00
16 0.00
17 0.00
18 0.00
19 0.00
20 0.00
21 0.00
22 0.00
23 0.00
24 0.00
25 0.00
26 0.00
27 0.00
28 0.00
29 0.00
30 0.00
31 0.00

@<SCITEGIC>ATOM_PROPERTY
pdb_occupancy
SciTegic.value.DoubleValue
1 1.00
2 1.00
3 1.00
4 1.00
5 1.00
6 1.00
7 1.00
8 1.00
9 1.00
10 1.00
11 1.00
12 1.00
13 1.00
14 1.00
15 1.00
16 1.00
17 1.00
18 1.00
19 1.00
20 1.00
21 1.00
22 1.00
23 1.00
24 1.00
25 1.00
26 1.00
27 1.00
28 1.00
29 1.00
30 1.00
31 1.00

#	copyright 2023 drugdesign.org
#	Creation time:	2024-01-11T10:58:48Z

@<SCITEGIC>ROOT_PROPERTY
Ligand:MaximumNumberOfAtoms
SciTegic.value.IntegerValue
100

@<SCITEGIC>ROOT_PROPERTY
Ligand:HydrogenAtomsCountTowardsMaximum
SciTegic.value.BooleanValue
FALSE

@<TRIPOS>MOLECULE
2_bond_rotate_all.sd
   31    33     0 0 0
SMALL
USER_CHARGES


@<TRIPOS>ATOM
      1 C1            0.000000    0.000000   -2.977000 C.2      1 SUBUNIT    0.0268
      2 N2           -0.702300    1.216400   -2.977000 N.2      1 SUBUNIT   -0.2639
      3 C3           -2.106800    1.216400   -2.977000 C.2      1 SUBUNIT    0.0393
      4 C4           -2.809000    0.000000   -2.977000 C.2      1 SUBUNIT    0.0557
      5 C5           -2.106800   -1.216400   -2.977000 C.2      1 SUBUNIT   -0.0466
      6 C6           -0.702200   -1.216400   -2.977000 C.2      1 SUBUNIT   -0.0430
      7 H7            1.103400    0.000000   -2.977000 H        1 SUBUNIT    0.0840
      8 H8           -2.658500    2.172000   -2.977000 H        1 SUBUNIT    0.0848
      9 H9           -2.658500   -2.171900   -2.977000 H        1 SUBUNIT    0.0632
     10 H10          -0.150500   -2.172000   -2.977000 H        1 SUBUNIT    0.0639
     11 C11          -4.137600   -0.014300   -2.977000 C.2      1 SUBUNIT    0.2487
     12 N12          -4.814900   -0.021600   -4.173700 N.am     1 SUBUNIT   -0.2816
     13 O13          -4.746400   -0.020800   -1.915600 O.2      1 SUBUNIT   -0.2715
     14 H14          -4.207000   -0.015000   -4.991400 H        1 SUBUNIT    0.1560
     15 C15          -6.128800   -0.035700   -4.176400 C.2      1 SUBUNIT    0.0291
     16 C16          -6.843700   -0.043400   -2.967400 C.2      1 SUBUNIT   -0.0552
     17 C17          -8.222600   -0.058200   -5.414800 C.2      1 SUBUNIT   -0.0749
     18 C18          -6.818200   -0.043100   -5.400100 C.2      1 SUBUNIT   -0.0444
     19 H19          -6.302000   -0.037600   -2.006100 H        1 SUBUNIT    0.0602
     20 H20          -8.764300   -0.064000   -6.376000 H        1 SUBUNIT    0.0583
     21 H21          -6.256500   -0.037100   -6.349900 H        1 SUBUNIT    0.0639
     22 C22         -10.290200   -0.080400   -4.249600 C.2      1 SUBUNIT   -0.0756
     23 C23         -11.005200   -0.088100   -3.040700 C.2      1 SUBUNIT   -0.0517
     24 C24         -10.315700   -0.080700   -1.817000 C.2      1 SUBUNIT    0.0138
     25 C25          -8.911400   -0.065600   -1.802400 C.2      1 SUBUNIT   -0.0624
     26 C26          -8.196400   -0.057900   -3.011300 C.3      1 SUBUNIT    0.0480
     27 C27          -8.885800   -0.065300   -4.235000 C.3      1 SUBUNIT    0.0452
     28 H28         -10.831800   -0.086300   -5.210900 H        1 SUBUNIT    0.0583
     29 H29         -12.108500   -0.100000   -3.052300 H        1 SUBUNIT    0.0631
     30 Br30        -11.297400   -0.091300   -0.157100 Br       1 SUBUNIT   -0.0512
     31 H31          -8.369700   -0.059800   -0.841100 H        1 SUBUNIT    0.0594
@<TRIPOS>BOND
     1    1    2 2
     2    1    6 1
     3    1    7 1
     4    2    3 1
     5    3    4 2
     6    3    8 1
     7    4    5 1
     8    4   11 1
     9    5    6 2
    10    5    9 1
    11    6   10 1
    12   11   12 1
    13   11   13 2
    14   12   14 1
    15   12   15 1
    16   15   16 2
    17   15   18 1
    18   16   26 1
    19   16   19 1
    20   17   27 1
    21   17   18 2
    22   17   20 1
    23   18   21 1
    24   22   23 2
    25   22   27 1
    26   22   28 1
    27   23   24 1
    28   23   29 1
    29   24   25 2
    30   24   30 1
    31   25   26 1
    32   25   31 1
    33   26   27 1
@<SCITEGIC>ATOM_PROPERTY
Formal Charge
SciTegic.value.StringValue
1 0
2 0
3 0
4 0
5 0
6 0
7 0
8 0
9 0
10 0
11 0
12 0
13 0
14 0
15 0
16 0
17 0
18 0
19 0
20 0
21 0
22 0
23 0
24 0
25 0
26 0
27 0
28 0
29 0
30 0
31 0

@<SCITEGIC>ATOM_PROPERTY
pdb_tempFactor
SciTegic.value.DoubleValue
1 0.00
2 0.00
3 0.00
4 0.00
5 0.00
6 0.00
7 0.00
8 0.00
9 0.00
10 0.00
11 0.00
12 0.00
13 0.00
14 0.00
15 0.00
16 0.00
17 0.00
18 0.00
19 0.00
20 0.00
21 0.00
22 0.00
23 0.00
24 0.00
25 0.00
26 0.00
27 0.00
28 0.00
29 0.00
30 0.00
31 0.00

@<SCITEGIC>ATOM_PROPERTY
pdb_occupancy
SciTegic.value.DoubleValue
1 1.00
2 1.00
3 1.00
4 1.00
5 1.00
6 1.00
7 1.00
8 1.00
9 1.00
10 1.00
11 1.00
12 1.00
13 1.00
14 1.00
15 1.00
16 1.00
17 1.00
18 1.00
19 1.00
20 1.00
21 1.00
22 1.00
23 1.00
24 1.00
25 1.00
26 1.00
27 1.00
28 1.00
29 1.00
30 1.00
31 1.00

#	copyright 2023 drugdesign.org
#	Creation time:	2024-01-11T10:58:48Z

@<SCITEGIC>ROOT_PROPERTY
Ligand:MaximumNumberOfAtoms
SciTegic.value.IntegerValue
100

@<SCITEGIC>ROOT_PROPERTY
Ligand:HydrogenAtomsCountTowardsMaximum
SciTegic.value.BooleanValue
FALSE

@<TRIPOS>MOLECULE
2_bond_rotate_all.sd
   31    33     0 0 0
SMALL
USER_CHARGES


@<TRIPOS>ATOM
      1 C1            0.000000    0.000000   -2.977000 C.2      1 SUBUNIT    0.0268
      2 N2           -0.702300    1.216400   -2.977000 N.2      1 SUBUNIT   -0.2639
      3 C3           -2.106800    1.216400   -2.977000 C.2      1 SUBUNIT    0.0393
      4 C4           -2.809000    0.000000   -2.977000 C.2      1 SUBUNIT    0.0557
      5 C5           -2.106800   -1.216400   -2.977000 C.2      1 SUBUNIT   -0.0466
      6 C6           -0.702200   -1.216400   -2.977000 C.2      1 SUBUNIT   -0.0430
      7 H7            1.103400    0.000000   -2.977000 H        1 SUBUNIT    0.0840
      8 H8           -2.658500    2.172000   -2.977000 H        1 SUBUNIT    0.0848
      9 H9           -2.658500   -2.171900   -2.977000 H        1 SUBUNIT    0.0632
     10 H10          -0.150500   -2.172000   -2.977000 H        1 SUBUNIT    0.0639
     11 C11          -4.137600   -0.014300   -2.977000 C.2      1 SUBUNIT    0.2487
     12 N12          -4.814900   -0.021600   -4.173700 N.am     1 SUBUNIT   -0.2816
     13 O13          -4.746400   -0.020800   -1.915600 O.2      1 SUBUNIT   -0.2715
     14 H14          -4.207000   -0.015000   -4.991400 H        1 SUBUNIT    0.1560
     15 C15          -6.128800   -0.035700   -4.176400 C.2      1 SUBUNIT    0.0291
     16 C16          -6.849900    0.561300   -3.129300 C.2      1 SUBUNIT   -0.0552
     17 C17          -8.216300   -0.674700   -5.249800 C.2      1 SUBUNIT   -0.0749
     18 C18          -6.811900   -0.653700   -5.236700 C.2      1 SUBUNIT   -0.0444
     19 H19          -6.313000    1.046800   -2.296400 H        1 SUBUNIT    0.0602
     20 H20          -8.753100   -1.160100   -6.082600 H        1 SUBUNIT    0.0583
     21 H21          -6.245500   -1.122700   -6.059300 H        1 SUBUNIT    0.0639
     22 C22         -10.289900   -0.112700   -4.241000 C.2      1 SUBUNIT   -0.0756
     23 C23         -11.011000    0.484300   -3.193900 C.2      1 SUBUNIT   -0.0517
     24 C24         -10.327800    1.102300   -2.133700 C.2      1 SUBUNIT    0.0138
     25 C25          -8.923500    1.123200   -2.120600 C.2      1 SUBUNIT   -0.0624
     26 C26          -8.202300    0.526300   -3.167700 C.3      1 SUBUNIT    0.0480
     27 C27          -8.885600   -0.091700   -4.227900 C.3      1 SUBUNIT    0.0452
     28 H28         -10.826600   -0.598200   -5.073900 H        1 SUBUNIT    0.0583
     29 H29         -12.114300    0.467800   -3.204300 H        1 SUBUNIT    0.0631
     30 Br30        -11.317900    1.921900   -0.696100 Br       1 SUBUNIT   -0.0512
     31 H31          -8.386800    1.608700   -1.287700 H        1 SUBUNIT    0.0594
@<TRIPOS>BOND
     1    1    2 2
     2    1    6 1
     3    1    7 1
     4    2    3 1
     5    3    4 2
     6    3    8 1
     7    4    5 1
     8    4   11 1
     9    5    6 2
    10    5    9 1
    11    6   10 1
    12   11   12 1
    13   11   13 2
    14   12   14 1
    15   12   15 1
    16   15   16 2
    17   15   18 1
    18   16   26 1
    19   16   19 1
    20   17   27 1
    21   17   18 2
    22   17   20 1
    23   18   21 1
    24   22   23 2
    25   22   27 1
    26   22   28 1
    27   23   24 1
    28   23   29 1
    29   24   25 2
    30   24   30 1
    31   25   26 1
    32   25   31 1
    33   26   27 1
@<SCITEGIC>ATOM_PROPERTY
Formal Charge
SciTegic.value.StringValue
1 0
2 0
3 0
4 0
5 0
6 0
7 0
8 0
9 0
10 0
11 0
12 0
13 0
14 0
15 0
16 0
17 0
18 0
19 0
20 0
21 0
22 0
23 0
24 0
25 0
26 0
27 0
28 0
29 0
30 0
31 0

@<SCITEGIC>ATOM_PROPERTY
pdb_tempFactor
SciTegic.value.DoubleValue
1 0.00
2 0.00
3 0.00
4 0.00
5 0.00
6 0.00
7 0.00
8 0.00
9 0.00
10 0.00
11 0.00
12 0.00
13 0.00
14 0.00
15 0.00
16 0.00
17 0.00
18 0.00
19 0.00
20 0.00
21 0.00
22 0.00
23 0.00
24 0.00
25 0.00
26 0.00
27 0.00
28 0.00
29 0.00
30 0.00
31 0.00

@<SCITEGIC>ATOM_PROPERTY
pdb_occupancy
SciTegic.value.DoubleValue
1 1.00
2 1.00
3 1.00
4 1.00
5 1.00
6 1.00
7 1.00
8 1.00
9 1.00
10 1.00
11 1.00
12 1.00
13 1.00
14 1.00
15 1.00
16 1.00
17 1.00
18 1.00
19 1.00
20 1.00
21 1.00
22 1.00
23 1.00
24 1.00
25 1.00
26 1.00
27 1.00
28 1.00
29 1.00
30 1.00
31 1.00

#	copyright 2023 drugdesign.org
#	Creation time:	2024-01-11T10:58:48Z

@<SCITEGIC>ROOT_PROPERTY
Ligand:MaximumNumberOfAtoms
SciTegic.value.IntegerValue
100

@<SCITEGIC>ROOT_PROPERTY
Ligand:HydrogenAtomsCountTowardsMaximum
SciTegic.value.BooleanValue
FALSE

@<TRIPOS>MOLECULE
2_bond_rotate_all.sd
   31    33     0 0 0
SMALL
USER_CHARGES


@<TRIPOS>ATOM
      1 C1            0.000000    0.000000   -2.977000 C.2      1 SUBUNIT    0.0268
      2 N2           -0.702300    1.216400   -2.977000 N.2      1 SUBUNIT   -0.2639
      3 C3           -2.106800    1.216400   -2.977000 C.2      1 SUBUNIT    0.0393
      4 C4           -2.809000    0.000000   -2.977000 C.2      1 SUBUNIT    0.0557
      5 C5           -2.106800   -1.216400   -2.977000 C.2      1 SUBUNIT   -0.0466
      6 C6           -0.702200   -1.216400   -2.977000 C.2      1 SUBUNIT   -0.0430
      7 H7            1.103400    0.000000   -2.977000 H        1 SUBUNIT    0.0840
      8 H8           -2.658500    2.172000   -2.977000 H        1 SUBUNIT    0.0848
      9 H9           -2.658500   -2.171900   -2.977000 H        1 SUBUNIT    0.0632
     10 H10          -0.150500   -2.172000   -2.977000 H        1 SUBUNIT    0.0639
     11 C11          -4.137600   -0.014300   -2.977000 C.2      1 SUBUNIT    0.2487
     12 N12          -4.814900   -0.021600   -4.173700 N.am     1 SUBUNIT   -0.2816
     13 O13          -4.746400   -0.020800   -1.915600 O.2      1 SUBUNIT   -0.2715
     14 H14          -4.207000   -0.015000   -4.991400 H        1 SUBUNIT    0.1560
     15 C15          -6.128800   -0.035700   -4.176400 C.2      1 SUBUNIT    0.0291
     16 C16          -6.853700    1.004900   -3.572700 C.2      1 SUBUNIT   -0.0552
     17 C17          -8.212400   -1.126900   -4.797800 C.2      1 SUBUNIT   -0.0749
     18 C18          -6.808100   -1.101600   -4.789000 C.2      1 SUBUNIT   -0.0444
     19 H19          -6.319900    1.842200   -3.091400 H        1 SUBUNIT    0.0602
     20 H20          -8.746100   -1.964100   -5.279000 H        1 SUBUNIT    0.0583
     21 H21          -6.238600   -1.919000   -5.263300 H        1 SUBUNIT    0.0639
     22 C22         -10.289700   -0.136400   -4.217400 C.2      1 SUBUNIT   -0.0756
     23 C23         -11.014600    0.904200   -3.613600 C.2      1 SUBUNIT   -0.0517
     24 C24         -10.335300    1.970000   -3.001100 C.2      1 SUBUNIT    0.0138
     25 C25          -8.931000    1.995300   -2.992300 C.2      1 SUBUNIT   -0.0624
     26 C26          -8.206000    0.954800   -3.596000 C.3      1 SUBUNIT    0.0480
     27 C27          -8.885400   -0.111100   -4.208600 C.3      1 SUBUNIT    0.0452
     28 H28         -10.823300   -0.973700   -4.698600 H        1 SUBUNIT    0.0583
     29 H29         -12.117900    0.884200   -3.620600 H        1 SUBUNIT    0.0631
     30 Br30        -11.330800    3.398700   -2.172100 Br       1 SUBUNIT   -0.0512
     31 H31          -8.397400    2.832600   -2.511100 H        1 SUBUNIT    0.0594
@<TRIPOS>BOND
     1    1    2 2
     2    1    6 1
     3    1    7 1
     4    2    3 1
     5    3    4 2
     6    3    8 1
     7    4    5 1
     8    4   11 1
     9    5    6 2
    10    5    9 1
    11    6   10 1
    12   11   12 1
    13   11   13 2
    14   12   14 1
    15   12   15 1
    16   15   16 2
    17   15   18 1
    18   16   26 1
    19   16   19 1
    20   17   27 1
    21   17   18 2
    22   17   20 1
    23   18   21 1
    24   22   23 2
    25   22   27 1
    26   22   28 1
    27   23   24 1
    28   23   29 1
    29   24   25 2
    30   24   30 1
    31   25   26 1
    32   25   31 1
    33   26   27 1
@<SCITEGIC>ATOM_PROPERTY
Formal Charge
SciTegic.value.StringValue
1 0
2 0
3 0
4 0
5 0
6 0
7 0
8 0
9 0
10 0
11 0
12 0
13 0
14 0
15 0
16 0
17 0
18 0
19 0
20 0
21 0
22 0
23 0
24 0
25 0
26 0
27 0
28 0
29 0
30 0
31 0

@<SCITEGIC>ATOM_PROPERTY
pdb_tempFactor
SciTegic.value.DoubleValue
1 0.00
2 0.00
3 0.00
4 0.00
5 0.00
6 0.00
7 0.00
8 0.00
9 0.00
10 0.00
11 0.00
12 0.00
13 0.00
14 0.00
15 0.00
16 0.00
17 0.00
18 0.00
19 0.00
20 0.00
21 0.00
22 0.00
23 0.00
24 0.00
25 0.00
26 0.00
27 0.00
28 0.00
29 0.00
30 0.00
31 0.00

@<SCITEGIC>ATOM_PROPERTY
pdb_occupancy
SciTegic.value.DoubleValue
1 1.00
2 1.00
3 1.00
4 1.00
5 1.00
6 1.00
7 1.00
8 1.00
9 1.00
10 1.00
11 1.00
12 1.00
13 1.00
14 1.00
15 1.00
16 1.00
17 1.00
18 1.00
19 1.00
20 1.00
21 1.00
22 1.00
23 1.00
24 1.00
25 1.00
26 1.00
27 1.00
28 1.00
29 1.00
30 1.00
31 1.00

#	copyright 2023 drugdesign.org
#	Creation time:	2024-01-11T10:58:48Z

@<SCITEGIC>ROOT_PROPERTY
Ligand:MaximumNumberOfAtoms
SciTegic.value.IntegerValue
100

@<SCITEGIC>ROOT_PROPERTY
Ligand:HydrogenAtomsCountTowardsMaximum
SciTegic.value.BooleanValue
FALSE

@<TRIPOS>MOLECULE
2_bond_rotate_all.sd
   31    33     0 0 0
SMALL
USER_CHARGES


@<TRIPOS>ATOM
      1 C1            0.000000    0.000000   -2.977000 C.2      1 SUBUNIT    0.0268
      2 N2           -0.702300    1.216400   -2.977000 N.2      1 SUBUNIT   -0.2639
      3 C3           -2.106800    1.216400   -2.977000 C.2      1 SUBUNIT    0.0393
      4 C4           -2.809000    0.000000   -2.977000 C.2      1 SUBUNIT    0.0557
      5 C5           -2.106800   -1.216400   -2.977000 C.2      1 SUBUNIT   -0.0466
      6 C6           -0.702200   -1.216400   -2.977000 C.2      1 SUBUNIT   -0.0430
      7 H7            1.103400    0.000000   -2.977000 H        1 SUBUNIT    0.0840
      8 H8           -2.658500    2.172000   -2.977000 H        1 SUBUNIT    0.0848
      9 H9           -2.658500   -2.171900   -2.977000 H        1 SUBUNIT    0.0632
     10 H10          -0.150500   -2.172000   -2.977000 H        1 SUBUNIT    0.0639
     11 C11          -4.137600   -0.014300   -2.977000 C.2      1 SUBUNIT    0.2487
     12 N12          -4.814900   -0.021600   -4.173700 N.am     1 SUBUNIT   -0.2816
     13 O13          -4.746400   -0.020800   -1.915600 O.2      1 SUBUNIT   -0.2715
     14 H14          -4.207000   -0.015000   -4.991400 H        1 SUBUNIT    0.1560
     15 C15          -6.128800   -0.035700   -4.176400 C.2      1 SUBUNIT    0.0291
     16 C16          -6.854200    1.167000   -4.177900 C.2      1 SUBUNIT   -0.0552
     17 C17          -8.211900   -1.292200   -4.180800 C.2      1 SUBUNIT   -0.0749
     18 C18          -6.807600   -1.265300   -4.177900 C.2      1 SUBUNIT   -0.0444
     19 H19          -6.320800    2.133000   -4.176800 H        1 SUBUNIT    0.0602
     20 H20          -8.745200   -2.258100   -4.181900 H        1 SUBUNIT    0.0583
     21 H21          -6.237700   -2.210200   -4.176700 H        1 SUBUNIT    0.0639
     22 C22         -10.289600   -0.145000   -4.185100 C.2      1 SUBUNIT   -0.0756
     23 C23         -11.015100    1.057700   -4.186600 C.2      1 SUBUNIT   -0.0517
     24 C24         -10.336300    2.287300   -4.185100 C.2      1 SUBUNIT    0.0138
     25 C25          -8.932000    2.314100   -4.182200 C.2      1 SUBUNIT   -0.0624
     26 C26          -8.206500    1.111500   -4.180700 C.3      1 SUBUNIT    0.0480
     27 C27          -8.885400   -0.118200   -4.182200 C.3      1 SUBUNIT    0.0452
     28 H28         -10.822900   -1.111000   -4.186200 H        1 SUBUNIT    0.0583
     29 H29         -12.118400    1.036500   -4.188900 H        1 SUBUNIT    0.0631
     30 Br30        -11.332400    3.938600   -4.187100 Br       1 SUBUNIT   -0.0512
     31 H31          -8.398700    3.280100   -4.181100 H        1 SUBUNIT    0.0594
@<TRIPOS>BOND
     1    1    2 2
     2    1    6 1
     3    1    7 1
     4    2    3 1
     5    3    4 2
     6    3    8 1
     7    4    5 1
     8    4   11 1
     9    5    6 2
    10    5    9 1
    11    6   10 1
    12   11   12 1
    13   11   13 2
    14   12   14 1
    15   12   15 1
    16   15   16 2
    17   15   18 1
    18   16   26 1
    19   16   19 1
    20   17   27 1
    21   17   18 2
    22   17   20 1
    23   18   21 1
    24   22   23 2
    25   22   27 1
    26   22   28 1
    27   23   24 1
    28   23   29 1
    29   24   25 2
    30   24   30 1
    31   25   26 1
    32   25   31 1
    33   26   27 1
@<SCITEGIC>ATOM_PROPERTY
Formal Charge
SciTegic.value.StringValue
1 0
2 0
3 0
4 0
5 0
6 0
7 0
8 0
9 0
10 0
11 0
12 0
13 0
14 0
15 0
16 0
17 0
18 0
19 0
20 0
21 0
22 0
23 0
24 0
25 0
26 0
27 0
28 0
29 0
30 0
31 0

@<SCITEGIC>ATOM_PROPERTY
pdb_tempFactor
SciTegic.value.DoubleValue
1 0.00
2 0.00
3 0.00
4 0.00
5 0.00
6 0.00
7 0.00
8 0.00
9 0.00
10 0.00
11 0.00
12 0.00
13 0.00
14 0.00
15 0.00
16 0.00
17 0.00
18 0.00
19 0.00
20 0.00
21 0.00
22 0.00
23 0.00
24 0.00
25 0.00
26 0.00
27 0.00
28 0.00
29 0.00
30 0.00
31 0.00

@<SCITEGIC>ATOM_PROPERTY
pdb_occupancy
SciTegic.value.DoubleValue
1 1.00
2 1.00
3 1.00
4 1.00
5 1.00
6 1.00
7 1.00
8 1.00
9 1.00
10 1.00
11 1.00
12 1.00
13 1.00
14 1.00
15 1.00
16 1.00
17 1.00
18 1.00
19 1.00
20 1.00
21 1.00
22 1.00
23 1.00
24 1.00
25 1.00
26 1.00
27 1.00
28 1.00
29 1.00
30 1.00
31 1.00

#	copyright 2023 drugdesign.org
#	Creation time:	2024-01-11T10:58:48Z

@<SCITEGIC>ROOT_PROPERTY
Ligand:MaximumNumberOfAtoms
SciTegic.value.IntegerValue
100

@<SCITEGIC>ROOT_PROPERTY
Ligand:HydrogenAtomsCountTowardsMaximum
SciTegic.value.BooleanValue
FALSE

@<TRIPOS>MOLECULE
2_bond_rotate_all.sd
   31    33     0 0 0
SMALL
USER_CHARGES


@<TRIPOS>ATOM
      1 C1            0.000000    0.000000   -2.977000 C.2      1 SUBUNIT    0.0268
      2 N2           -0.702300    1.216400   -2.977000 N.2      1 SUBUNIT   -0.2639
      3 C3           -2.106800    1.216400   -2.977000 C.2      1 SUBUNIT    0.0393
      4 C4           -2.809000    0.000000   -2.977000 C.2      1 SUBUNIT    0.0557
      5 C5           -2.106800   -1.216400   -2.977000 C.2      1 SUBUNIT   -0.0466
      6 C6           -0.702200   -1.216400   -2.977000 C.2      1 SUBUNIT   -0.0430
      7 H7            1.103400    0.000000   -2.977000 H        1 SUBUNIT    0.0840
      8 H8           -2.658500    2.172000   -2.977000 H        1 SUBUNIT    0.0848
      9 H9           -2.658500   -2.171900   -2.977000 H        1 SUBUNIT    0.0632
     10 H10          -0.150500   -2.172000   -2.977000 H        1 SUBUNIT    0.0639
     11 C11          -4.137600   -0.014300   -2.977000 C.2      1 SUBUNIT    0.2487
     12 N12          -4.814900   -0.021600   -4.173700 N.am     1 SUBUNIT   -0.2816
     13 O13          -4.746400   -0.020800   -1.915600 O.2      1 SUBUNIT   -0.2715
     14 H14          -4.207000   -0.015000   -4.991400 H        1 SUBUNIT    0.1560
     15 C15          -6.128800   -0.035700   -4.176400 C.2      1 SUBUNIT    0.0291
     16 C16          -6.851200    1.004900   -4.783100 C.2      1 SUBUNIT   -0.0552
     17 C17          -8.215000   -1.126900   -3.563800 C.2      1 SUBUNIT   -0.0749
     18 C18          -6.810600   -1.101600   -3.566700 C.2      1 SUBUNIT   -0.0444
     19 H19          -6.315400    1.842200   -5.262100 H        1 SUBUNIT    0.0602
     20 H20          -8.750700   -1.964200   -3.084900 H        1 SUBUNIT    0.0583
     21 H21          -6.243100   -1.919100   -3.090100 H        1 SUBUNIT    0.0639
     22 C22         -10.289800   -0.136400   -4.152800 C.2      1 SUBUNIT   -0.0756
     23 C23         -11.012300    0.904200   -4.759500 C.2      1 SUBUNIT   -0.0517
     24 C24         -10.330400    1.970100   -5.369200 C.2      1 SUBUNIT    0.0138
     25 C25          -8.926100    1.995300   -5.372100 C.2      1 SUBUNIT   -0.0624
     26 C26          -8.203600    0.954800   -4.765400 C.3      1 SUBUNIT    0.0480
     27 C27          -8.885500   -0.111100   -4.155700 C.3      1 SUBUNIT    0.0452
     28 H28         -10.825500   -0.973700   -3.673800 H        1 SUBUNIT    0.0583
     29 H29         -12.115500    0.884200   -4.757100 H        1 SUBUNIT    0.0631
     30 Br30        -11.322400    3.398800   -6.202200 Br       1 SUBUNIT   -0.0512
     31 H31          -8.390400    2.832700   -5.851100 H        1 SUBUNIT    0.0594
@<TRIPOS>BOND
     1    1    2 2
     2    1    6 1
     3    1    7 1
     4    2    3 1
     5    3    4 2
     6    3    8 1
     7    4    5 1
     8    4   11 1
     9    5    6 2
    10    5    9 1
    11    6   10 1
    12   11   12 1
    13   11   13 2
    14   12   14 1
    15   12   15 1
    16   15   16 2
    17   15   18 1
    18   16   26 1
    19   16   19 1
    20   17   27 1
    21   17   18 2
    22   17   20 1
    23   18   21 1
    24   22   23 2
    25   22   27 1
    26   22   28 1
    27   23   24 1
    28   23   29 1
    29   24   25 2
    30   24   30 1
    31   25   26 1
    32   25   31 1
    33   26   27 1
@<SCITEGIC>ATOM_PROPERTY
Formal Charge
SciTegic.value.StringValue
1 0
2 0
3 0
4 0
5 0
6 0
7 0
8 0
9 0
10 0
11 0
12 0
13 0
14 0
15 0
16 0
17 0
18 0
19 0
20 0
21 0
22 0
23 0
24 0
25 0
26 0
27 0
28 0
29 0
30 0
31 0

@<SCITEGIC>ATOM_PROPERTY
pdb_tempFactor
SciTegic.value.DoubleValue
1 0.00
2 0.00
3 0.00
4 0.00
5 0.00
6 0.00
7 0.00
8 0.00
9 0.00
10 0.00
11 0.00
12 0.00
13 0.00
14 0.00
15 0.00
16 0.00
17 0.00
18 0.00
19 0.00
20 0.00
21 0.00
22 0.00
23 0.00
24 0.00
25 0.00
26 0.00
27 0.00
28 0.00
29 0.00
30 0.00
31 0.00

@<SCITEGIC>ATOM_PROPERTY
pdb_occupancy
SciTegic.value.DoubleValue
1 1.00
2 1.00
3 1.00
4 1.00
5 1.00
6 1.00
7 1.00
8 1.00
9 1.00
10 1.00
11 1.00
12 1.00
13 1.00
14 1.00
15 1.00
16 1.00
17 1.00
18 1.00
19 1.00
20 1.00
21 1.00
22 1.00
23 1.00
24 1.00
25 1.00
26 1.00
27 1.00
28 1.00
29 1.00
30 1.00
31 1.00

#	copyright 2023 drugdesign.org
#	Creation time:	2024-01-11T10:58:48Z

@<SCITEGIC>ROOT_PROPERTY
Ligand:MaximumNumberOfAtoms
SciTegic.value.IntegerValue
100

@<SCITEGIC>ROOT_PROPERTY
Ligand:HydrogenAtomsCountTowardsMaximum
SciTegic.value.BooleanValue
FALSE

@<TRIPOS>MOLECULE
2_bond_rotate_all.sd
   31    33     0 0 0
SMALL
USER_CHARGES


@<TRIPOS>ATOM
      1 C1            0.000000    0.000000   -2.977000 C.2      1 SUBUNIT    0.0268
      2 N2           -0.702300    1.216400   -2.977000 N.2      1 SUBUNIT   -0.2639
      3 C3           -2.106800    1.216400   -2.977000 C.2      1 SUBUNIT    0.0393
      4 C4           -2.809000    0.000000   -2.977000 C.2      1 SUBUNIT    0.0557
      5 C5           -2.106800   -1.216400   -2.977000 C.2      1 SUBUNIT   -0.0466
      6 C6           -0.702200   -1.216400   -2.977000 C.2      1 SUBUNIT   -0.0430
      7 H7            1.103400    0.000000   -2.977000 H        1 SUBUNIT    0.0840
      8 H8           -2.658500    2.172000   -2.977000 H        1 SUBUNIT    0.0848
      9 H9           -2.658500   -2.171900   -2.977000 H        1 SUBUNIT    0.0632
     10 H10          -0.150500   -2.172000   -2.977000 H        1 SUBUNIT    0.0639
     11 C11          -4.137600   -0.014300   -2.977000 C.2      1 SUBUNIT    0.2487
     12 N12          -4.814900   -0.021600   -4.173700 N.am     1 SUBUNIT   -0.2816
     13 O13          -4.746400   -0.020800   -1.915600 O.2      1 SUBUNIT   -0.2715
     14 H14          -4.207000   -0.015000   -4.991400 H        1 SUBUNIT    0.1560
     15 C15          -6.128800   -0.035700   -4.176400 C.2      1 SUBUNIT    0.0291
     16 C16          -6.845500    0.561900   -5.226200 C.2      1 SUBUNIT   -0.0552
     17 C17          -8.220800   -0.675300   -3.112100 C.2      1 SUBUNIT   -0.0749
     18 C18          -6.816300   -0.654300   -3.119400 C.2      1 SUBUNIT   -0.0444
     19 H19          -6.305200    1.047800   -6.056600 H        1 SUBUNIT    0.0602
     20 H20          -8.761000   -1.161100   -2.281800 H        1 SUBUNIT    0.0583
     21 H21          -6.253300   -1.123700   -2.294700 H        1 SUBUNIT    0.0639
     22 C22         -10.290100   -0.112700   -4.129200 C.2      1 SUBUNIT   -0.0756
     23 C23         -11.006900    0.484800   -5.178900 C.2      1 SUBUNIT   -0.0517
     24 C24         -10.319300    1.103300   -6.235900 C.2      1 SUBUNIT    0.0138
     25 C25          -8.914900    1.124300   -6.243200 C.2      1 SUBUNIT   -0.0624
     26 C26          -8.198100    0.526800   -5.193500 C.3      1 SUBUNIT    0.0480
     27 C27          -8.885700   -0.091800   -4.136400 C.3      1 SUBUNIT    0.0452
     28 H28         -10.830300   -0.598700   -3.298700 H        1 SUBUNIT    0.0583
     29 H29         -12.110200    0.468300   -5.173100 H        1 SUBUNIT    0.0631
     30 Br30        -11.303400    1.923800   -7.677300 Br       1 SUBUNIT   -0.0512
     31 H31          -8.374700    1.610200   -7.073600 H        1 SUBUNIT    0.0594
@<TRIPOS>BOND
     1    1    2 2
     2    1    6 1
     3    1    7 1
     4    2    3 1
     5    3    4 2
     6    3    8 1
     7    4    5 1
     8    4   11 1
     9    5    6 2
    10    5    9 1
    11    6   10 1
    12   11   12 1
    13   11   13 2
    14   12   14 1
    15   12   15 1
    16   15   16 2
    17   15   18 1
    18   16   26 1
    19   16   19 1
    20   17   27 1
    21   17   18 2
    22   17   20 1
    23   18   21 1
    24   22   23 2
    25   22   27 1
    26   22   28 1
    27   23   24 1
    28   23   29 1
    29   24   25 2
    30   24   30 1
    31   25   26 1
    32   25   31 1
    33   26   27 1
@<SCITEGIC>ATOM_PROPERTY
Formal Charge
SciTegic.value.StringValue
1 0
2 0
3 0
4 0
5 0
6 0
7 0
8 0
9 0
10 0
11 0
12 0
13 0
14 0
15 0
16 0
17 0
18 0
19 0
20 0
21 0
22 0
23 0
24 0
25 0
26 0
27 0
28 0
29 0
30 0
31 0

@<SCITEGIC>ATOM_PROPERTY
pdb_tempFactor
SciTegic.value.DoubleValue
1 0.00
2 0.00
3 0.00
4 0.00
5 0.00
6 0.00
7 0.00
8 0.00
9 0.00
10 0.00
11 0.00
12 0.00
13 0.00
14 0.00
15 0.00
16 0.00
17 0.00
18 0.00
19 0.00
20 0.00
21 0.00
22 0.00
23 0.00
24 0.00
25 0.00
26 0.00
27 0.00
28 0.00
29 0.00
30 0.00
31 0.00

@<SCITEGIC>ATOM_PROPERTY
pdb_occupancy
SciTegic.value.DoubleValue
1 1.00
2 1.00
3 1.00
4 1.00
5 1.00
6 1.00
7 1.00
8 1.00
9 1.00
10 1.00
11 1.00
12 1.00
13 1.00
14 1.00
15 1.00
16 1.00
17 1.00
18 1.00
19 1.00
20 1.00
21 1.00
22 1.00
23 1.00
24 1.00
25 1.00
26 1.00
27 1.00
28 1.00
29 1.00
30 1.00
31 1.00

#	copyright 2023 drugdesign.org
#	Creation time:	2024-01-11T10:58:48Z

@<SCITEGIC>ROOT_PROPERTY
Ligand:MaximumNumberOfAtoms
SciTegic.value.IntegerValue
100

@<SCITEGIC>ROOT_PROPERTY
Ligand:HydrogenAtomsCountTowardsMaximum
SciTegic.value.BooleanValue
FALSE

@<TRIPOS>MOLECULE
2_bond_rotate_all.sd
   31    33     0 0 0
SMALL
USER_CHARGES


@<TRIPOS>ATOM
      1 C1            0.000000    0.000000   -2.977000 C.2      1 SUBUNIT    0.0268
      2 N2           -0.702300    1.216400   -2.977000 N.2      1 SUBUNIT   -0.2639
      3 C3           -2.106800    1.216400   -2.977000 C.2      1 SUBUNIT    0.0393
      4 C4           -2.809000    0.000000   -2.977000 C.2      1 SUBUNIT    0.0557
      5 C5           -2.106800   -1.216400   -2.977000 C.2      1 SUBUNIT   -0.0466
      6 C6           -0.702200   -1.216400   -2.977000 C.2      1 SUBUNIT   -0.0430
      7 H7            1.103400    0.000000   -2.977000 H        1 SUBUNIT    0.0840
      8 H8           -2.658500    2.172000   -2.977000 H        1 SUBUNIT    0.0848
      9 H9           -2.658500   -2.171900   -2.977000 H        1 SUBUNIT    0.0632
     10 H10          -0.150500   -2.172000   -2.977000 H        1 SUBUNIT    0.0639
     11 C11          -4.137600   -0.014300   -2.977000 C.2      1 SUBUNIT    0.2487
     12 N12          -4.814900   -0.021600   -4.173700 N.am     1 SUBUNIT   -0.2816
     13 O13          -4.746400   -0.020800   -1.915600 O.2      1 SUBUNIT   -0.2715
     14 H14          -4.207000   -0.015000   -4.991400 H        1 SUBUNIT    0.1560
     15 C15          -6.128800   -0.035700   -4.176400 C.2      1 SUBUNIT    0.0291
     16 C16          -6.838700   -0.043300   -5.388400 C.2      1 SUBUNIT   -0.0552
     17 C17          -8.227700   -0.058300   -2.946800 C.2      1 SUBUNIT   -0.0749
     18 C18          -6.823200   -0.043200   -2.955600 C.2      1 SUBUNIT   -0.0444
     19 H19          -6.293000   -0.037500   -6.347400 H        1 SUBUNIT    0.0602
     20 H20          -8.773400   -0.064100   -1.987800 H        1 SUBUNIT    0.0583
     21 H21          -6.265600   -0.037200   -2.003500 H        1 SUBUNIT    0.0639
     22 C22         -10.290500   -0.080500   -4.120500 C.2      1 SUBUNIT   -0.0756
     23 C23         -11.000400   -0.088100   -5.332400 C.2      1 SUBUNIT   -0.0517
     24 C24         -10.305900   -0.080600   -6.553200 C.2      1 SUBUNIT    0.0138
     25 C25          -8.901500   -0.065500   -6.562000 C.2      1 SUBUNIT   -0.0624
     26 C26          -8.191500   -0.057900   -5.350100 C.3      1 SUBUNIT    0.0480
     27 C27          -8.886000   -0.065400   -4.129300 C.3      1 SUBUNIT    0.0452
     28 H28         -10.836100   -0.086300   -3.161500 H        1 SUBUNIT    0.0583
     29 H29         -12.103800   -0.100000   -5.325400 H        1 SUBUNIT    0.0631
     30 Br30        -11.280700   -0.091100   -8.217200 Br       1 SUBUNIT   -0.0512
     31 H31          -8.355900   -0.059600   -7.521000 H        1 SUBUNIT    0.0594
@<TRIPOS>BOND
     1    1    2 2
     2    1    6 1
     3    1    7 1
     4    2    3 1
     5    3    4 2
     6    3    8 1
     7    4    5 1
     8    4   11 1
     9    5    6 2
    10    5    9 1
    11    6   10 1
    12   11   12 1
    13   11   13 2
    14   12   14 1
    15   12   15 1
    16   15   16 2
    17   15   18 1
    18   16   26 1
    19   16   19 1
    20   17   27 1
    21   17   18 2
    22   17   20 1
    23   18   21 1
    24   22   23 2
    25   22   27 1
    26   22   28 1
    27   23   24 1
    28   23   29 1
    29   24   25 2
    30   24   30 1
    31   25   26 1
    32   25   31 1
    33   26   27 1
@<SCITEGIC>ATOM_PROPERTY
Formal Charge
SciTegic.value.StringValue
1 0
2 0
3 0
4 0
5 0
6 0
7 0
8 0
9 0
10 0
11 0
12 0
13 0
14 0
15 0
16 0
17 0
18 0
19 0
20 0
21 0
22 0
23 0
24 0
25 0
26 0
27 0
28 0
29 0
30 0
31 0

@<SCITEGIC>ATOM_PROPERTY
pdb_tempFactor
SciTegic.value.DoubleValue
1 0.00
2 0.00
3 0.00
4 0.00
5 0.00
6 0.00
7 0.00
8 0.00
9 0.00
10 0.00
11 0.00
12 0.00
13 0.00
14 0.00
15 0.00
16 0.00
17 0.00
18 0.00
19 0.00
20 0.00
21 0.00
22 0.00
23 0.00
24 0.00
25 0.00
26 0.00
27 0.00
28 0.00
29 0.00
30 0.00
31 0.00

@<SCITEGIC>ATOM_PROPERTY
pdb_occupancy
SciTegic.value.DoubleValue
1 1.00
2 1.00
3 1.00
4 1.00
5 1.00
6 1.00
7 1.00
8 1.00
9 1.00
10 1.00
11 1.00
12 1.00
13 1.00
14 1.00
15 1.00
16 1.00
17 1.00
18 1.00
19 1.00
20 1.00
21 1.00
22 1.00
23 1.00
24 1.00
25 1.00
26 1.00
27 1.00
28 1.00
29 1.00
30 1.00
31 1.00

#	copyright 2023 drugdesign.org
#	Creation time:	2024-01-11T10:58:48Z

@<SCITEGIC>ROOT_PROPERTY
Ligand:MaximumNumberOfAtoms
SciTegic.value.IntegerValue
100

@<SCITEGIC>ROOT_PROPERTY
Ligand:HydrogenAtomsCountTowardsMaximum
SciTegic.value.BooleanValue
FALSE

@<TRIPOS>MOLECULE
2_bond_rotate_all.sd
   31    33     0 0 0
SMALL
USER_CHARGES


@<TRIPOS>ATOM
      1 C1            0.000000    0.000000   -2.977000 C.2      1 SUBUNIT    0.0268
      2 N2           -0.702300    1.216400   -2.977000 N.2      1 SUBUNIT   -0.2639
      3 C3           -2.106800    1.216400   -2.977000 C.2      1 SUBUNIT    0.0393
      4 C4           -2.809000    0.000000   -2.977000 C.2      1 SUBUNIT    0.0557
      5 C5           -2.106800   -1.216400   -2.977000 C.2      1 SUBUNIT   -0.0466
      6 C6           -0.702200   -1.216400   -2.977000 C.2      1 SUBUNIT   -0.0430
      7 H7            1.103400    0.000000   -2.977000 H        1 SUBUNIT    0.0840
      8 H8           -2.658500    2.172000   -2.977000 H        1 SUBUNIT    0.0848
      9 H9           -2.658500   -2.171900   -2.977000 H        1 SUBUNIT    0.0632
     10 H10          -0.150500   -2.172000   -2.977000 H        1 SUBUNIT    0.0639
     11 C11          -4.137600   -0.014300   -2.977000 C.2      1 SUBUNIT    0.2487
     12 N12          -4.814900   -0.021600   -4.173700 N.am     1 SUBUNIT   -0.2816
     13 O13          -4.746400   -0.020800   -1.915600 O.2      1 SUBUNIT   -0.2715
     14 H14          -4.207000   -0.015000   -4.991400 H        1 SUBUNIT    0.1560
     15 C15          -6.128800   -0.035700   -4.176400 C.2      1 SUBUNIT    0.0291
     16 C16          -6.832500   -0.648500   -5.226200 C.2      1 SUBUNIT   -0.0552
     17 C17          -8.234000    0.558700   -3.112100 C.2      1 SUBUNIT   -0.0749
     18 C18          -6.829500    0.567900   -3.119400 C.2      1 SUBUNIT   -0.0444
     19 H19          -6.281900   -1.122700   -6.056600 H        1 SUBUNIT    0.0602
     20 H20          -8.784600    1.032900   -2.281700 H        1 SUBUNIT    0.0583
     21 H21          -6.276600    1.049400   -2.294700 H        1 SUBUNIT    0.0639
     22 C22         -10.290800   -0.048200   -4.129100 C.2      1 SUBUNIT   -0.0756
     23 C23         -10.994600   -0.661000   -5.178900 C.2      1 SUBUNIT   -0.0517
     24 C24         -10.293800   -1.264600   -6.235900 C.2      1 SUBUNIT    0.0138
     25 C25          -8.889300   -1.255400   -6.243200 C.2      1 SUBUNIT   -0.0624
     26 C26          -8.185500   -0.642600   -5.193500 C.3      1 SUBUNIT    0.0480
     27 C27          -8.886300   -0.038900   -4.136400 C.3      1 SUBUNIT    0.0452
     28 H28         -10.841300    0.426000   -3.298700 H        1 SUBUNIT    0.0583
     29 H29         -12.098000   -0.668200   -5.173100 H        1 SUBUNIT    0.0631
     30 Br30        -11.260100   -2.106000   -7.677300 Br       1 SUBUNIT   -0.0512
     31 H31          -8.338800   -1.729600   -7.073600 H        1 SUBUNIT    0.0594
@<TRIPOS>BOND
     1    1    2 2
     2    1    6 1
     3    1    7 1
     4    2    3 1
     5    3    4 2
     6    3    8 1
     7    4    5 1
     8    4   11 1
     9    5    6 2
    10    5    9 1
    11    6   10 1
    12   11   12 1
    13   11   13 2
    14   12   14 1
    15   12   15 1
    16   15   16 2
    17   15   18 1
    18   16   26 1
    19   16   19 1
    20   17   27 1
    21   17   18 2
    22   17   20 1
    23   18   21 1
    24   22   23 2
    25   22   27 1
    26   22   28 1
    27   23   24 1
    28   23   29 1
    29   24   25 2
    30   24   30 1
    31   25   26 1
    32   25   31 1
    33   26   27 1
@<SCITEGIC>ATOM_PROPERTY
Formal Charge
SciTegic.value.StringValue
1 0
2 0
3 0
4 0
5 0
6 0
7 0
8 0
9 0
10 0
11 0
12 0
13 0
14 0
15 0
16 0
17 0
18 0
19 0
20 0
21 0
22 0
23 0
24 0
25 0
26 0
27 0
28 0
29 0
30 0
31 0

@<SCITEGIC>ATOM_PROPERTY
pdb_tempFactor
SciTegic.value.DoubleValue
1 0.00
2 0.00
3 0.00
4 0.00
5 0.00
6 0.00
7 0.00
8 0.00
9 0.00
10 0.00
11 0.00
12 0.00
13 0.00
14 0.00
15 0.00
16 0.00
17 0.00
18 0.00
19 0.00
20 0.00
21 0.00
22 0.00
23 0.00
24 0.00
25 0.00
26 0.00
27 0.00
28 0.00
29 0.00
30 0.00
31 0.00

@<SCITEGIC>ATOM_PROPERTY
pdb_occupancy
SciTegic.value.DoubleValue
1 1.00
2 1.00
3 1.00
4 1.00
5 1.00
6 1.00
7 1.00
8 1.00
9 1.00
10 1.00
11 1.00
12 1.00
13 1.00
14 1.00
15 1.00
16 1.00
17 1.00
18 1.00
19 1.00
20 1.00
21 1.00
22 1.00
23 1.00
24 1.00
25 1.00
26 1.00
27 1.00
28 1.00
29 1.00
30 1.00
31 1.00

#	copyright 2023 drugdesign.org
#	Creation time:	2024-01-11T10:58:48Z

@<SCITEGIC>ROOT_PROPERTY
Ligand:MaximumNumberOfAtoms
SciTegic.value.IntegerValue
100

@<SCITEGIC>ROOT_PROPERTY
Ligand:HydrogenAtomsCountTowardsMaximum
SciTegic.value.BooleanValue
FALSE

@<TRIPOS>MOLECULE
2_bond_rotate_all.sd
   31    33     0 0 0
SMALL
USER_CHARGES


@<TRIPOS>ATOM
      1 C1            0.000000    0.000000   -2.977000 C.2      1 SUBUNIT    0.0268
      2 N2           -0.702300    1.216400   -2.977000 N.2      1 SUBUNIT   -0.2639
      3 C3           -2.106800    1.216400   -2.977000 C.2      1 SUBUNIT    0.0393
      4 C4           -2.809000    0.000000   -2.977000 C.2      1 SUBUNIT    0.0557
      5 C5           -2.106800   -1.216400   -2.977000 C.2      1 SUBUNIT   -0.0466
      6 C6           -0.702200   -1.216400   -2.977000 C.2      1 SUBUNIT   -0.0430
      7 H7            1.103400    0.000000   -2.977000 H        1 SUBUNIT    0.0840
      8 H8           -2.658500    2.172000   -2.977000 H        1 SUBUNIT    0.0848
      9 H9           -2.658500   -2.171900   -2.977000 H        1 SUBUNIT    0.0632
     10 H10          -0.150500   -2.172000   -2.977000 H        1 SUBUNIT    0.0639
     11 C11          -4.137600   -0.014300   -2.977000 C.2      1 SUBUNIT    0.2487
     12 N12          -4.814900   -0.021600   -4.173700 N.am     1 SUBUNIT   -0.2816
     13 O13          -4.746400   -0.020800   -1.915600 O.2      1 SUBUNIT   -0.2715
     14 H14          -4.207000   -0.015000   -4.991400 H        1 SUBUNIT    0.1560
     15 C15          -6.128800   -0.035700   -4.176400 C.2      1 SUBUNIT    0.0291
     16 C16          -6.828700   -1.091600   -4.783100 C.2      1 SUBUNIT   -0.0552
     17 C17          -8.237900    1.010400   -3.563800 C.2      1 SUBUNIT   -0.0749
     18 C18          -6.833400    1.015300   -3.566700 C.2      1 SUBUNIT   -0.0444
     19 H19          -6.275000   -1.917200   -5.262100 H        1 SUBUNIT    0.0602
     20 H20          -8.791500    1.835900   -3.084800 H        1 SUBUNIT    0.0583
     21 H21          -6.283500    1.844800   -3.090100 H        1 SUBUNIT    0.0639
     22 C22         -10.291000   -0.024500   -4.152800 C.2      1 SUBUNIT   -0.0756
     23 C23         -10.990900   -1.080400   -4.759500 C.2      1 SUBUNIT   -0.0517
     24 C24         -10.286300   -2.131300   -5.369200 C.2      1 SUBUNIT    0.0138
     25 C25          -8.881800   -2.126400   -5.372100 C.2      1 SUBUNIT   -0.0624
     26 C26          -8.181800   -1.070600   -4.765400 C.3      1 SUBUNIT    0.0480
     27 C27          -8.886500   -0.019600   -4.155700 C.3      1 SUBUNIT    0.0452
     28 H28         -10.844600    0.801100   -3.673800 H        1 SUBUNIT    0.0583
     29 H29         -12.094400   -1.084200   -4.757100 H        1 SUBUNIT    0.0631
     30 Br30        -11.247300   -3.581100   -6.202200 Br       1 SUBUNIT   -0.0512
     31 H31          -8.328200   -2.952000   -5.851100 H        1 SUBUNIT    0.0594
@<TRIPOS>BOND
     1    1    2 2
     2    1    6 1
     3    1    7 1
     4    2    3 1
     5    3    4 2
     6    3    8 1
     7    4    5 1
     8    4   11 1
     9    5    6 2
    10    5    9 1
    11    6   10 1
    12   11   12 1
    13   11   13 2
    14   12   14 1
    15   12   15 1
    16   15   16 2
    17   15   18 1
    18   16   26 1
    19   16   19 1
    20   17   27 1
    21   17   18 2
    22   17   20 1
    23   18   21 1
    24   22   23 2
    25   22   27 1
    26   22   28 1
    27   23   24 1
    28   23   29 1
    29   24   25 2
    30   24   30 1
    31   25   26 1
    32   25   31 1
    33   26   27 1
@<SCITEGIC>ATOM_PROPERTY
Formal Charge
SciTegic.value.StringValue
1 0
2 0
3 0
4 0
5 0
6 0
7 0
8 0
9 0
10 0
11 0
12 0
13 0
14 0
15 0
16 0
17 0
18 0
19 0
20 0
21 0
22 0
23 0
24 0
25 0
26 0
27 0
28 0
29 0
30 0
31 0

@<SCITEGIC>ATOM_PROPERTY
pdb_tempFactor
SciTegic.value.DoubleValue
1 0.00
2 0.00
3 0.00
4 0.00
5 0.00
6 0.00
7 0.00
8 0.00
9 0.00
10 0.00
11 0.00
12 0.00
13 0.00
14 0.00
15 0.00
16 0.00
17 0.00
18 0.00
19 0.00
20 0.00
21 0.00
22 0.00
23 0.00
24 0.00
25 0.00
26 0.00
27 0.00
28 0.00
29 0.00
30 0.00
31 0.00

@<SCITEGIC>ATOM_PROPERTY
pdb_occupancy
SciTegic.value.DoubleValue
1 1.00
2 1.00
3 1.00
4 1.00
5 1.00
6 1.00
7 1.00
8 1.00
9 1.00
10 1.00
11 1.00
12 1.00
13 1.00
14 1.00
15 1.00
16 1.00
17 1.00
18 1.00
19 1.00
20 1.00
21 1.00
22 1.00
23 1.00
24 1.00
25 1.00
26 1.00
27 1.00
28 1.00
29 1.00
30 1.00
31 1.00

#	copyright 2023 drugdesign.org
#	Creation time:	2024-01-11T10:58:48Z

@<SCITEGIC>ROOT_PROPERTY
Ligand:MaximumNumberOfAtoms
SciTegic.value.IntegerValue
100

@<SCITEGIC>ROOT_PROPERTY
Ligand:HydrogenAtomsCountTowardsMaximum
SciTegic.value.BooleanValue
FALSE

@<TRIPOS>MOLECULE
2_bond_rotate_all.sd
   31    33     0 0 0
SMALL
USER_CHARGES


@<TRIPOS>ATOM
      1 C1            0.000000    0.000000   -2.977000 C.2      1 SUBUNIT    0.0268
      2 N2           -0.702300    1.216400   -2.977000 N.2      1 SUBUNIT   -0.2639
      3 C3           -2.106800    1.216400   -2.977000 C.2      1 SUBUNIT    0.0393
      4 C4           -2.809000    0.000000   -2.977000 C.2      1 SUBUNIT    0.0557
      5 C5           -2.106800   -1.216400   -2.977000 C.2      1 SUBUNIT   -0.0466
      6 C6           -0.702200   -1.216400   -2.977000 C.2      1 SUBUNIT   -0.0430
      7 H7            1.103400    0.000000   -2.977000 H        1 SUBUNIT    0.0840
      8 H8           -2.658500    2.172000   -2.977000 H        1 SUBUNIT    0.0848
      9 H9           -2.658500   -2.171900   -2.977000 H        1 SUBUNIT    0.0632
     10 H10          -0.150500   -2.172000   -2.977000 H        1 SUBUNIT    0.0639
     11 C11          -4.137600   -0.014300   -2.977000 C.2      1 SUBUNIT    0.2487
     12 N12          -4.814900   -0.021600   -4.173700 N.am     1 SUBUNIT   -0.2816
     13 O13          -4.746400   -0.020800   -1.915600 O.2      1 SUBUNIT   -0.2715
     14 H14          -4.207000   -0.015000   -4.991400 H        1 SUBUNIT    0.1560
     15 C15          -6.128800   -0.035700   -4.176400 C.2      1 SUBUNIT    0.0291
     16 C16          -6.828200   -1.253800   -4.177900 C.2      1 SUBUNIT   -0.0552
     17 C17          -8.238400    1.175700   -4.180800 C.2      1 SUBUNIT   -0.0749
     18 C18          -6.833800    1.179000   -4.177900 C.2      1 SUBUNIT   -0.0444
     19 H19          -6.274100   -2.208100   -4.176800 H        1 SUBUNIT    0.0602
     20 H20          -8.792400    2.129900   -4.181900 H        1 SUBUNIT    0.0583
     21 H21          -6.284400    2.135900   -4.176700 H        1 SUBUNIT    0.0639
     22 C22         -10.291000   -0.015900   -4.185100 C.2      1 SUBUNIT   -0.0756
     23 C23         -10.990500   -1.233900   -4.186500 C.2      1 SUBUNIT   -0.0517
     24 C24         -10.285400   -2.448600   -4.185100 C.2      1 SUBUNIT    0.0138
     25 C25          -8.880800   -2.445300   -4.182200 C.2      1 SUBUNIT   -0.0624
     26 C26          -8.181400   -1.227300   -4.180700 C.3      1 SUBUNIT    0.0480
     27 C27          -8.886500   -0.012500   -4.182100 C.3      1 SUBUNIT    0.0452
     28 H28         -10.845000    0.938400   -4.186200 H        1 SUBUNIT    0.0583
     29 H29         -12.093900   -1.236500   -4.188800 H        1 SUBUNIT    0.0631
     30 Br30        -11.245700   -4.121000   -4.187200 Br       1 SUBUNIT   -0.0512
     31 H31          -8.326900   -3.399500   -4.181100 H        1 SUBUNIT    0.0594
@<TRIPOS>BOND
     1    1    2 2
     2    1    6 1
     3    1    7 1
     4    2    3 1
     5    3    4 2
     6    3    8 1
     7    4    5 1
     8    4   11 1
     9    5    6 2
    10    5    9 1
    11    6   10 1
    12   11   12 1
    13   11   13 2
    14   12   14 1
    15   12   15 1
    16   15   16 2
    17   15   18 1
    18   16   26 1
    19   16   19 1
    20   17   27 1
    21   17   18 2
    22   17   20 1
    23   18   21 1
    24   22   23 2
    25   22   27 1
    26   22   28 1
    27   23   24 1
    28   23   29 1
    29   24   25 2
    30   24   30 1
    31   25   26 1
    32   25   31 1
    33   26   27 1
@<SCITEGIC>ATOM_PROPERTY
Formal Charge
SciTegic.value.StringValue
1 0
2 0
3 0
4 0
5 0
6 0
7 0
8 0
9 0
10 0
11 0
12 0
13 0
14 0
15 0
16 0
17 0
18 0
19 0
20 0
21 0
22 0
23 0
24 0
25 0
26 0
27 0
28 0
29 0
30 0
31 0

@<SCITEGIC>ATOM_PROPERTY
pdb_tempFactor
SciTegic.value.DoubleValue
1 0.00
2 0.00
3 0.00
4 0.00
5 0.00
6 0.00
7 0.00
8 0.00
9 0.00
10 0.00
11 0.00
12 0.00
13 0.00
14 0.00
15 0.00
16 0.00
17 0.00
18 0.00
19 0.00
20 0.00
21 0.00
22 0.00
23 0.00
24 0.00
25 0.00
26 0.00
27 0.00
28 0.00
29 0.00
30 0.00
31 0.00

@<SCITEGIC>ATOM_PROPERTY
pdb_occupancy
SciTegic.value.DoubleValue
1 1.00
2 1.00
3 1.00
4 1.00
5 1.00
6 1.00
7 1.00
8 1.00
9 1.00
10 1.00
11 1.00
12 1.00
13 1.00
14 1.00
15 1.00
16 1.00
17 1.00
18 1.00
19 1.00
20 1.00
21 1.00
22 1.00
23 1.00
24 1.00
25 1.00
26 1.00
27 1.00
28 1.00
29 1.00
30 1.00
31 1.00

#	copyright 2023 drugdesign.org
#	Creation time:	2024-01-11T10:58:48Z

@<SCITEGIC>ROOT_PROPERTY
Ligand:MaximumNumberOfAtoms
SciTegic.value.IntegerValue
100

@<SCITEGIC>ROOT_PROPERTY
Ligand:HydrogenAtomsCountTowardsMaximum
SciTegic.value.BooleanValue
FALSE

@<TRIPOS>MOLECULE
2_bond_rotate_all.sd
   31    33     0 0 0
SMALL
USER_CHARGES


@<TRIPOS>ATOM
      1 C1            0.000000    0.000000   -2.977000 C.2      1 SUBUNIT    0.0268
      2 N2           -0.702300    1.216400   -2.977000 N.2      1 SUBUNIT   -0.2639
      3 C3           -2.106800    1.216400   -2.977000 C.2      1 SUBUNIT    0.0393
      4 C4           -2.809000    0.000000   -2.977000 C.2      1 SUBUNIT    0.0557
      5 C5           -2.106800   -1.216400   -2.977000 C.2      1 SUBUNIT   -0.0466
      6 C6           -0.702200   -1.216400   -2.977000 C.2      1 SUBUNIT   -0.0430
      7 H7            1.103400    0.000000   -2.977000 H        1 SUBUNIT    0.0840
      8 H8           -2.658500    2.172000   -2.977000 H        1 SUBUNIT    0.0848
      9 H9           -2.658500   -2.171900   -2.977000 H        1 SUBUNIT    0.0632
     10 H10          -0.150500   -2.172000   -2.977000 H        1 SUBUNIT    0.0639
     11 C11          -4.137600   -0.014300   -2.977000 C.2      1 SUBUNIT    0.2487
     12 N12          -4.814900   -0.021600   -4.173700 N.am     1 SUBUNIT   -0.2816
     13 O13          -4.746400   -0.020800   -1.915600 O.2      1 SUBUNIT   -0.2715
     14 H14          -4.207000   -0.015000   -4.991400 H        1 SUBUNIT    0.1560
     15 C15          -6.128800   -0.035700   -4.176400 C.2      1 SUBUNIT    0.0291
     16 C16          -6.831200   -1.091600   -3.572700 C.2      1 SUBUNIT   -0.0552
     17 C17          -8.235400    1.010400   -4.797800 C.2      1 SUBUNIT   -0.0749
     18 C18          -6.830800    1.015300   -4.789000 C.2      1 SUBUNIT   -0.0444
     19 H19          -6.279500   -1.917300   -3.091400 H        1 SUBUNIT    0.0602
     20 H20          -8.787000    1.836000   -5.279000 H        1 SUBUNIT    0.0583
     21 H21          -6.279000    1.844800   -5.263300 H        1 SUBUNIT    0.0639
     22 C22         -10.290900   -0.024500   -4.217400 C.2      1 SUBUNIT   -0.0756
     23 C23         -10.993300   -1.080400   -3.613600 C.2      1 SUBUNIT   -0.0517
     24 C24         -10.291200   -2.131400   -3.001100 C.2      1 SUBUNIT    0.0138
     25 C25          -8.886700   -2.126500   -2.992300 C.2      1 SUBUNIT   -0.0624
     26 C26          -8.184300   -1.070600   -3.596000 C.3      1 SUBUNIT    0.0480
     27 C27          -8.886400   -0.019600   -4.208600 C.3      1 SUBUNIT    0.0452
     28 H28         -10.842400    0.801100   -4.698600 H        1 SUBUNIT    0.0583
     29 H29         -12.096700   -1.084200   -3.620600 H        1 SUBUNIT    0.0631
     30 Br30        -11.255700   -3.581200   -2.172100 Br       1 SUBUNIT   -0.0512
     31 H31          -8.335200   -2.952100   -2.511100 H        1 SUBUNIT    0.0594
@<TRIPOS>BOND
     1    1    2 2
     2    1    6 1
     3    1    7 1
     4    2    3 1
     5    3    4 2
     6    3    8 1
     7    4    5 1
     8    4   11 1
     9    5    6 2
    10    5    9 1
    11    6   10 1
    12   11   12 1
    13   11   13 2
    14   12   14 1
    15   12   15 1
    16   15   16 2
    17   15   18 1
    18   16   26 1
    19   16   19 1
    20   17   27 1
    21   17   18 2
    22   17   20 1
    23   18   21 1
    24   22   23 2
    25   22   27 1
    26   22   28 1
    27   23   24 1
    28   23   29 1
    29   24   25 2
    30   24   30 1
    31   25   26 1
    32   25   31 1
    33   26   27 1
@<SCITEGIC>ATOM_PROPERTY
Formal Charge
SciTegic.value.StringValue
1 0
2 0
3 0
4 0
5 0
6 0
7 0
8 0
9 0
10 0
11 0
12 0
13 0
14 0
15 0
16 0
17 0
18 0
19 0
20 0
21 0
22 0
23 0
24 0
25 0
26 0
27 0
28 0
29 0
30 0
31 0

@<SCITEGIC>ATOM_PROPERTY
pdb_tempFactor
SciTegic.value.DoubleValue
1 0.00
2 0.00
3 0.00
4 0.00
5 0.00
6 0.00
7 0.00
8 0.00
9 0.00
10 0.00
11 0.00
12 0.00
13 0.00
14 0.00
15 0.00
16 0.00
17 0.00
18 0.00
19 0.00
20 0.00
21 0.00
22 0.00
23 0.00
24 0.00
25 0.00
26 0.00
27 0.00
28 0.00
29 0.00
30 0.00
31 0.00

@<SCITEGIC>ATOM_PROPERTY
pdb_occupancy
SciTegic.value.DoubleValue
1 1.00
2 1.00
3 1.00
4 1.00
5 1.00
6 1.00
7 1.00
8 1.00
9 1.00
10 1.00
11 1.00
12 1.00
13 1.00
14 1.00
15 1.00
16 1.00
17 1.00
18 1.00
19 1.00
20 1.00
21 1.00
22 1.00
23 1.00
24 1.00
25 1.00
26 1.00
27 1.00
28 1.00
29 1.00
30 1.00
31 1.00

#	copyright 2023 drugdesign.org
#	Creation time:	2024-01-11T10:58:48Z

@<SCITEGIC>ROOT_PROPERTY
Ligand:MaximumNumberOfAtoms
SciTegic.value.IntegerValue
100

@<SCITEGIC>ROOT_PROPERTY
Ligand:HydrogenAtomsCountTowardsMaximum
SciTegic.value.BooleanValue
FALSE

@<TRIPOS>MOLECULE
2_bond_rotate_all.sd
   31    33     0 0 0
SMALL
USER_CHARGES


@<TRIPOS>ATOM
      1 C1            0.000000    0.000000   -2.977000 C.2      1 SUBUNIT    0.0268
      2 N2           -0.702300    1.216400   -2.977000 N.2      1 SUBUNIT   -0.2639
      3 C3           -2.106800    1.216400   -2.977000 C.2      1 SUBUNIT    0.0393
      4 C4           -2.809000    0.000000   -2.977000 C.2      1 SUBUNIT    0.0557
      5 C5           -2.106800   -1.216400   -2.977000 C.2      1 SUBUNIT   -0.0466
      6 C6           -0.702200   -1.216400   -2.977000 C.2      1 SUBUNIT   -0.0430
      7 H7            1.103400    0.000000   -2.977000 H        1 SUBUNIT    0.0840
      8 H8           -2.658500    2.172000   -2.977000 H        1 SUBUNIT    0.0848
      9 H9           -2.658500   -2.171900   -2.977000 H        1 SUBUNIT    0.0632
     10 H10          -0.150500   -2.172000   -2.977000 H        1 SUBUNIT    0.0639
     11 C11          -4.137600   -0.014300   -2.977000 C.2      1 SUBUNIT    0.2487
     12 N12          -4.814900   -0.021600   -4.173700 N.am     1 SUBUNIT   -0.2816
     13 O13          -4.746400   -0.020800   -1.915600 O.2      1 SUBUNIT   -0.2715
     14 H14          -4.207000   -0.015000   -4.991400 H        1 SUBUNIT    0.1560
     15 C15          -6.128800   -0.035700   -4.176400 C.2      1 SUBUNIT    0.0291
     16 C16          -6.836900   -0.648600   -3.129600 C.2      1 SUBUNIT   -0.0552
     17 C17          -8.229600    0.558800   -5.249500 C.2      1 SUBUNIT   -0.0749
     18 C18          -6.825100    0.568000   -5.236300 C.2      1 SUBUNIT   -0.0444
     19 H19          -6.289700   -1.122800   -2.296900 H        1 SUBUNIT    0.0602
     20 H20          -8.776700    1.033000   -6.082100 H        1 SUBUNIT    0.0583
     21 H21          -6.268800    1.049500   -6.058700 H        1 SUBUNIT    0.0639
     22 C22         -10.290600   -0.048200   -4.241000 C.2      1 SUBUNIT   -0.0756
     23 C23         -10.998700   -0.661000   -3.194200 C.2      1 SUBUNIT   -0.0517
     24 C24         -10.302300   -1.264700   -2.134300 C.2      1 SUBUNIT    0.0138
     25 C25          -8.897900   -1.255500   -2.121200 C.2      1 SUBUNIT   -0.0624
     26 C26          -8.189700   -0.642600   -3.167900 C.3      1 SUBUNIT    0.0480
     27 C27          -8.886100   -0.038900   -4.227900 C.3      1 SUBUNIT    0.0452
     28 H28         -10.837600    0.426100   -5.073700 H        1 SUBUNIT    0.0583
     29 H29         -12.102100   -0.668200   -3.204600 H        1 SUBUNIT    0.0631
     30 Br30        -11.274600   -2.106200   -0.697000 Br       1 SUBUNIT   -0.0512
     31 H31          -8.350900   -1.729700   -1.288600 H        1 SUBUNIT    0.0594
@<TRIPOS>BOND
     1    1    2 2
     2    1    6 1
     3    1    7 1
     4    2    3 1
     5    3    4 2
     6    3    8 1
     7    4    5 1
     8    4   11 1
     9    5    6 2
    10    5    9 1
    11    6   10 1
    12   11   12 1
    13   11   13 2
    14   12   14 1
    15   12   15 1
    16   15   16 2
    17   15   18 1
    18   16   26 1
    19   16   19 1
    20   17   27 1
    21   17   18 2
    22   17   20 1
    23   18   21 1
    24   22   23 2
    25   22   27 1
    26   22   28 1
    27   23   24 1
    28   23   29 1
    29   24   25 2
    30   24   30 1
    31   25   26 1
    32   25   31 1
    33   26   27 1
@<SCITEGIC>ATOM_PROPERTY
Formal Charge
SciTegic.value.StringValue
1 0
2 0
3 0
4 0
5 0
6 0
7 0
8 0
9 0
10 0
11 0
12 0
13 0
14 0
15 0
16 0
17 0
18 0
19 0
20 0
21 0
22 0
23 0
24 0
25 0
26 0
27 0
28 0
29 0
30 0
31 0

@<SCITEGIC>ATOM_PROPERTY
pdb_tempFactor
SciTegic.value.DoubleValue
1 0.00
2 0.00
3 0.00
4 0.00
5 0.00
6 0.00
7 0.00
8 0.00
9 0.00
10 0.00
11 0.00
12 0.00
13 0.00
14 0.00
15 0.00
16 0.00
17 0.00
18 0.00
19 0.00
20 0.00
21 0.00
22 0.00
23 0.00
24 0.00
25 0.00
26 0.00
27 0.00
28 0.00
29 0.00
30 0.00
31 0.00

@<SCITEGIC>ATOM_PROPERTY
pdb_occupancy
SciTegic.value.DoubleValue
1 1.00
2 1.00
3 1.00
4 1.00
5 1.00
6 1.00
7 1.00
8 1.00
9 1.00
10 1.00
11 1.00
12 1.00
13 1.00
14 1.00
15 1.00
16 1.00
17 1.00
18 1.00
19 1.00
20 1.00
21 1.00
22 1.00
23 1.00
24 1.00
25 1.00
26 1.00
27 1.00
28 1.00
29 1.00
30 1.00
31 1.00

#	copyright 2023 drugdesign.org
#	Creation time:	2024-01-11T10:58:48Z

@<SCITEGIC>ROOT_PROPERTY
Ligand:MaximumNumberOfAtoms
SciTegic.value.IntegerValue
100

@<SCITEGIC>ROOT_PROPERTY
Ligand:HydrogenAtomsCountTowardsMaximum
SciTegic.value.BooleanValue
FALSE

@<TRIPOS>MOLECULE
2_bond_rotate_all.sd
   31    33     0 0 0
SMALL
USER_CHARGES


@<TRIPOS>ATOM
      1 C1            0.000000    0.000000   -2.977000 C.2      1 SUBUNIT    0.0268
      2 N2           -0.702300    1.216400   -2.977000 N.2      1 SUBUNIT   -0.2639
      3 C3           -2.106800    1.216400   -2.977000 C.2      1 SUBUNIT    0.0393
      4 C4           -2.809000    0.000000   -2.977000 C.2      1 SUBUNIT    0.0557
      5 C5           -2.106800   -1.216400   -2.977000 C.2      1 SUBUNIT   -0.0466
      6 C6           -0.702200   -1.216400   -2.977000 C.2      1 SUBUNIT   -0.0430
      7 H7            1.103400    0.000000   -2.977000 H        1 SUBUNIT    0.0840
      8 H8           -2.658500    2.172000   -2.977000 H        1 SUBUNIT    0.0848
      9 H9           -2.658500   -2.171900   -2.977000 H        1 SUBUNIT    0.0632
     10 H10          -0.150500   -2.172000   -2.977000 H        1 SUBUNIT    0.0639
     11 C11          -4.137600   -0.014300   -2.977000 C.2      1 SUBUNIT    0.2487
     12 N12          -4.808500   -0.619900   -4.013400 N.am     1 SUBUNIT   -0.2816
     13 O13          -4.752100    0.509800   -2.057800 O.2      1 SUBUNIT   -0.2715
     14 H14          -4.196200   -1.022200   -4.721500 H        1 SUBUNIT    0.1560
     15 C15          -6.122300   -0.635400   -4.015700 C.2      1 SUBUNIT    0.0291
     16 C16          -6.843800   -0.038600   -2.968700 C.2      1 SUBUNIT   -0.0552
     17 C17          -8.209500   -1.277100   -5.088200 C.2      1 SUBUNIT   -0.0749
     18 C18          -6.805100   -1.254600   -5.075500 C.2      1 SUBUNIT   -0.0444
     19 H19          -6.307200    0.447800   -2.136200 H        1 SUBUNIT    0.0602
     20 H20          -8.746000   -1.763500   -5.920600 H        1 SUBUNIT    0.0583
     21 H21          -6.238400   -1.723400   -5.898000 H        1 SUBUNIT    0.0639
     22 C22         -10.283400   -0.716700   -4.079100 C.2      1 SUBUNIT   -0.0756
     23 C23         -11.004800   -0.120000   -3.032100 C.2      1 SUBUNIT   -0.0517
     24 C24         -10.322000    0.499200   -1.972400 C.2      1 SUBUNIT    0.0138
     25 C25          -8.917700    0.521600   -1.959800 C.2      1 SUBUNIT   -0.0624
     26 C26          -8.196200   -0.075100   -3.006700 C.3      1 SUBUNIT    0.0480
     27 C27          -8.879100   -0.694300   -4.066500 C.3      1 SUBUNIT    0.0452
     28 H28         -10.819800   -1.203200   -4.911700 H        1 SUBUNIT    0.0583
     29 H29         -12.108100   -0.137700   -3.042200 H        1 SUBUNIT    0.0631
     30 Br30        -11.312600    1.318600   -0.534900 Br       1 SUBUNIT   -0.0512
     31 H31          -8.381200    1.008100   -1.127200 H        1 SUBUNIT    0.0594
@<TRIPOS>BOND
     1    1    2 2
     2    1    6 1
     3    1    7 1
     4    2    3 1
     5    3    4 2
     6    3    8 1
     7    4    5 1
     8    4   11 1
     9    5    6 2
    10    5    9 1
    11    6   10 1
    12   11   12 1
    13   11   13 2
    14   12   14 1
    15   12   15 1
    16   15   16 2
    17   15   18 1
    18   16   26 1
    19   16   19 1
    20   17   27 1
    21   17   18 2
    22   17   20 1
    23   18   21 1
    24   22   23 2
    25   22   27 1
    26   22   28 1
    27   23   24 1
    28   23   29 1
    29   24   25 2
    30   24   30 1
    31   25   26 1
    32   25   31 1
    33   26   27 1
@<SCITEGIC>ATOM_PROPERTY
Formal Charge
SciTegic.value.StringValue
1 0
2 0
3 0
4 0
5 0
6 0
7 0
8 0
9 0
10 0
11 0
12 0
13 0
14 0
15 0
16 0
17 0
18 0
19 0
20 0
21 0
22 0
23 0
24 0
25 0
26 0
27 0
28 0
29 0
30 0
31 0

@<SCITEGIC>ATOM_PROPERTY
pdb_tempFactor
SciTegic.value.DoubleValue
1 0.00
2 0.00
3 0.00
4 0.00
5 0.00
6 0.00
7 0.00
8 0.00
9 0.00
10 0.00
11 0.00
12 0.00
13 0.00
14 0.00
15 0.00
16 0.00
17 0.00
18 0.00
19 0.00
20 0.00
21 0.00
22 0.00
23 0.00
24 0.00
25 0.00
26 0.00
27 0.00
28 0.00
29 0.00
30 0.00
31 0.00

@<SCITEGIC>ATOM_PROPERTY
pdb_occupancy
SciTegic.value.DoubleValue
1 1.00
2 1.00
3 1.00
4 1.00
5 1.00
6 1.00
7 1.00
8 1.00
9 1.00
10 1.00
11 1.00
12 1.00
13 1.00
14 1.00
15 1.00
16 1.00
17 1.00
18 1.00
19 1.00
20 1.00
21 1.00
22 1.00
23 1.00
24 1.00
25 1.00
26 1.00
27 1.00
28 1.00
29 1.00
30 1.00
31 1.00

#	copyright 2023 drugdesign.org
#	Creation time:	2024-01-11T10:58:48Z

@<SCITEGIC>ROOT_PROPERTY
Ligand:MaximumNumberOfAtoms
SciTegic.value.IntegerValue
100

@<SCITEGIC>ROOT_PROPERTY
Ligand:HydrogenAtomsCountTowardsMaximum
SciTegic.value.BooleanValue
FALSE

@<TRIPOS>MOLECULE
2_bond_rotate_all.sd
   31    33     0 0 0
SMALL
USER_CHARGES


@<TRIPOS>ATOM
      1 C1            0.000000    0.000000   -2.977000 C.2      1 SUBUNIT    0.0268
      2 N2           -0.702300    1.216400   -2.977000 N.2      1 SUBUNIT   -0.2639
      3 C3           -2.106800    1.216400   -2.977000 C.2      1 SUBUNIT    0.0393
      4 C4           -2.809000    0.000000   -2.977000 C.2      1 SUBUNIT    0.0557
      5 C5           -2.106800   -1.216400   -2.977000 C.2      1 SUBUNIT   -0.0466
      6 C6           -0.702200   -1.216400   -2.977000 C.2      1 SUBUNIT   -0.0430
      7 H7            1.103400    0.000000   -2.977000 H        1 SUBUNIT    0.0840
      8 H8           -2.658500    2.172000   -2.977000 H        1 SUBUNIT    0.0848
      9 H9           -2.658500   -2.171900   -2.977000 H        1 SUBUNIT    0.0632
     10 H10          -0.150500   -2.172000   -2.977000 H        1 SUBUNIT    0.0639
     11 C11          -4.137600   -0.014300   -2.977000 C.2      1 SUBUNIT    0.2487
     12 N12          -4.808500   -0.619900   -4.013400 N.am     1 SUBUNIT   -0.2816
     13 O13          -4.752100    0.509800   -2.057800 O.2      1 SUBUNIT   -0.2715
     14 H14          -4.196200   -1.022200   -4.721500 H        1 SUBUNIT    0.1560
     15 C15          -6.122300   -0.635400   -4.015700 C.2      1 SUBUNIT    0.0291
     16 C16          -6.848200    0.404100   -3.411300 C.2      1 SUBUNIT   -0.0552
     17 C17          -8.205000   -1.728400   -4.637000 C.2      1 SUBUNIT   -0.0749
     18 C18          -6.800700   -1.701700   -4.628600 C.2      1 SUBUNIT   -0.0444
     19 H19          -6.315100    1.241800   -2.929800 H        1 SUBUNIT    0.0602
     20 H20          -8.738000   -2.566000   -5.118500 H        1 SUBUNIT    0.0583
     21 H21          -6.230500   -2.518300   -5.103500 H        1 SUBUNIT    0.0639
     22 C22         -10.283100   -0.740400   -4.055500 C.2      1 SUBUNIT   -0.0756
     23 C23         -11.009000    0.299200   -3.451100 C.2      1 SUBUNIT   -0.0517
     24 C24         -10.330600    1.365400   -2.838200 C.2      1 SUBUNIT    0.0138
     25 C25          -8.926400    1.392100   -2.829800 C.2      1 SUBUNIT   -0.0624
     26 C26          -8.200400    0.352700   -3.434200 C.3      1 SUBUNIT    0.0480
     27 C27          -8.878900   -0.713600   -4.047100 C.3      1 SUBUNIT    0.0452
     28 H28         -10.816100   -1.578000   -4.537000 H        1 SUBUNIT    0.0583
     29 H29         -12.112300    0.278000   -3.457700 H        1 SUBUNIT    0.0631
     30 Br30        -11.327300    2.792600   -2.008300 Br       1 SUBUNIT   -0.0512
     31 H31          -8.393400    2.229700   -2.348300 H        1 SUBUNIT    0.0594
@<TRIPOS>BOND
     1    1    2 2
     2    1    6 1
     3    1    7 1
     4    2    3 1
     5    3    4 2
     6    3    8 1
     7    4    5 1
     8    4   11 1
     9    5    6 2
    10    5    9 1
    11    6   10 1
    12   11   12 1
    13   11   13 2
    14   12   14 1
    15   12   15 1
    16   15   16 2
    17   15   18 1
    18   16   26 1
    19   16   19 1
    20   17   27 1
    21   17   18 2
    22   17   20 1
    23   18   21 1
    24   22   23 2
    25   22   27 1
    26   22   28 1
    27   23   24 1
    28   23   29 1
    29   24   25 2
    30   24   30 1
    31   25   26 1
    32   25   31 1
    33   26   27 1
@<SCITEGIC>ATOM_PROPERTY
Formal Charge
SciTegic.value.StringValue
1 0
2 0
3 0
4 0
5 0
6 0
7 0
8 0
9 0
10 0
11 0
12 0
13 0
14 0
15 0
16 0
17 0
18 0
19 0
20 0
21 0
22 0
23 0
24 0
25 0
26 0
27 0
28 0
29 0
30 0
31 0

@<SCITEGIC>ATOM_PROPERTY
pdb_tempFactor
SciTegic.value.DoubleValue
1 0.00
2 0.00
3 0.00
4 0.00
5 0.00
6 0.00
7 0.00
8 0.00
9 0.00
10 0.00
11 0.00
12 0.00
13 0.00
14 0.00
15 0.00
16 0.00
17 0.00
18 0.00
19 0.00
20 0.00
21 0.00
22 0.00
23 0.00
24 0.00
25 0.00
26 0.00
27 0.00
28 0.00
29 0.00
30 0.00
31 0.00

@<SCITEGIC>ATOM_PROPERTY
pdb_occupancy
SciTegic.value.DoubleValue
1 1.00
2 1.00
3 1.00
4 1.00
5 1.00
6 1.00
7 1.00
8 1.00
9 1.00
10 1.00
11 1.00
12 1.00
13 1.00
14 1.00
15 1.00
16 1.00
17 1.00
18 1.00
19 1.00
20 1.00
21 1.00
22 1.00
23 1.00
24 1.00
25 1.00
26 1.00
27 1.00
28 1.00
29 1.00
30 1.00
31 1.00

#	copyright 2023 drugdesign.org
#	Creation time:	2024-01-11T10:58:48Z

@<SCITEGIC>ROOT_PROPERTY
Ligand:MaximumNumberOfAtoms
SciTegic.value.IntegerValue
100

@<SCITEGIC>ROOT_PROPERTY
Ligand:HydrogenAtomsCountTowardsMaximum
SciTegic.value.BooleanValue
FALSE

@<TRIPOS>MOLECULE
2_bond_rotate_all.sd
   31    33     0 0 0
SMALL
USER_CHARGES


@<TRIPOS>ATOM
      1 C1            0.000000    0.000000   -2.977000 C.2      1 SUBUNIT    0.0268
      2 N2           -0.702300    1.216400   -2.977000 N.2      1 SUBUNIT   -0.2639
      3 C3           -2.106800    1.216400   -2.977000 C.2      1 SUBUNIT    0.0393
      4 C4           -2.809000    0.000000   -2.977000 C.2      1 SUBUNIT    0.0557
      5 C5           -2.106800   -1.216400   -2.977000 C.2      1 SUBUNIT   -0.0466
      6 C6           -0.702200   -1.216400   -2.977000 C.2      1 SUBUNIT   -0.0430
      7 H7            1.103400    0.000000   -2.977000 H        1 SUBUNIT    0.0840
      8 H8           -2.658500    2.172000   -2.977000 H        1 SUBUNIT    0.0848
      9 H9           -2.658500   -2.171900   -2.977000 H        1 SUBUNIT    0.0632
     10 H10          -0.150500   -2.172000   -2.977000 H        1 SUBUNIT    0.0639
     11 C11          -4.137600   -0.014300   -2.977000 C.2      1 SUBUNIT    0.2487
     12 N12          -4.808500   -0.619900   -4.013400 N.am     1 SUBUNIT   -0.2816
     13 O13          -4.752100    0.509800   -2.057800 O.2      1 SUBUNIT   -0.2715
     14 H14          -4.196200   -1.022200   -4.721500 H        1 SUBUNIT    0.1560
     15 C15          -6.122300   -0.635400   -4.015700 C.2      1 SUBUNIT    0.0291
     16 C16          -6.849000    0.566600   -4.017000 C.2      1 SUBUNIT   -0.0552
     17 C17          -8.204200   -1.894000   -4.019500 C.2      1 SUBUNIT   -0.0749
     18 C18          -6.799800   -1.865700   -4.017000 C.2      1 SUBUNIT   -0.0444
     19 H19          -6.316600    1.533100   -4.016000 H        1 SUBUNIT    0.0602
     20 H20          -8.736500   -2.860500   -4.020500 H        1 SUBUNIT    0.0583
     21 H21          -6.229000   -2.810000   -4.016000 H        1 SUBUNIT    0.0639
     22 C22         -10.283100   -0.749000   -4.023200 C.2      1 SUBUNIT   -0.0756
     23 C23         -11.009800    0.453000   -4.024500 C.2      1 SUBUNIT   -0.0517
     24 C24         -10.332200    1.683200   -4.023300 C.2      1 SUBUNIT    0.0138
     25 C25          -8.928000    1.711500   -4.020700 C.2      1 SUBUNIT   -0.0624
     26 C26          -8.201200    0.509600   -4.019400 C.3      1 SUBUNIT    0.0480
     27 C27          -8.878800   -0.720700   -4.020700 C.3      1 SUBUNIT    0.0452
     28 H28         -10.815400   -1.715500   -4.024200 H        1 SUBUNIT    0.0583
     29 H29         -12.113000    0.430600   -4.026500 H        1 SUBUNIT    0.0631
     30 Br30        -11.330000    3.333500   -4.025000 Br       1 SUBUNIT   -0.0512
     31 H31          -8.395700    2.678000   -4.019700 H        1 SUBUNIT    0.0594
@<TRIPOS>BOND
     1    1    2 2
     2    1    6 1
     3    1    7 1
     4    2    3 1
     5    3    4 2
     6    3    8 1
     7    4    5 1
     8    4   11 1
     9    5    6 2
    10    5    9 1
    11    6   10 1
    12   11   12 1
    13   11   13 2
    14   12   14 1
    15   12   15 1
    16   15   16 2
    17   15   18 1
    18   16   26 1
    19   16   19 1
    20   17   27 1
    21   17   18 2
    22   17   20 1
    23   18   21 1
    24   22   23 2
    25   22   27 1
    26   22   28 1
    27   23   24 1
    28   23   29 1
    29   24   25 2
    30   24   30 1
    31   25   26 1
    32   25   31 1
    33   26   27 1
@<SCITEGIC>ATOM_PROPERTY
Formal Charge
SciTegic.value.StringValue
1 0
2 0
3 0
4 0
5 0
6 0
7 0
8 0
9 0
10 0
11 0
12 0
13 0
14 0
15 0
16 0
17 0
18 0
19 0
20 0
21 0
22 0
23 0
24 0
25 0
26 0
27 0
28 0
29 0
30 0
31 0

@<SCITEGIC>ATOM_PROPERTY
pdb_tempFactor
SciTegic.value.DoubleValue
1 0.00
2 0.00
3 0.00
4 0.00
5 0.00
6 0.00
7 0.00
8 0.00
9 0.00
10 0.00
11 0.00
12 0.00
13 0.00
14 0.00
15 0.00
16 0.00
17 0.00
18 0.00
19 0.00
20 0.00
21 0.00
22 0.00
23 0.00
24 0.00
25 0.00
26 0.00
27 0.00
28 0.00
29 0.00
30 0.00
31 0.00

@<SCITEGIC>ATOM_PROPERTY
pdb_occupancy
SciTegic.value.DoubleValue
1 1.00
2 1.00
3 1.00
4 1.00
5 1.00
6 1.00
7 1.00
8 1.00
9 1.00
10 1.00
11 1.00
12 1.00
13 1.00
14 1.00
15 1.00
16 1.00
17 1.00
18 1.00
19 1.00
20 1.00
21 1.00
22 1.00
23 1.00
24 1.00
25 1.00
26 1.00
27 1.00
28 1.00
29 1.00
30 1.00
31 1.00

#	copyright 2023 drugdesign.org
#	Creation time:	2024-01-11T10:58:48Z

@<SCITEGIC>ROOT_PROPERTY
Ligand:MaximumNumberOfAtoms
SciTegic.value.IntegerValue
100

@<SCITEGIC>ROOT_PROPERTY
Ligand:HydrogenAtomsCountTowardsMaximum
SciTegic.value.BooleanValue
FALSE

@<TRIPOS>MOLECULE
2_bond_rotate_all.sd
   31    33     0 0 0
SMALL
USER_CHARGES


@<TRIPOS>ATOM
      1 C1            0.000000    0.000000   -2.977000 C.2      1 SUBUNIT    0.0268
      2 N2           -0.702300    1.216400   -2.977000 N.2      1 SUBUNIT   -0.2639
      3 C3           -2.106800    1.216400   -2.977000 C.2      1 SUBUNIT    0.0393
      4 C4           -2.809000    0.000000   -2.977000 C.2      1 SUBUNIT    0.0557
      5 C5           -2.106800   -1.216400   -2.977000 C.2      1 SUBUNIT   -0.0466
      6 C6           -0.702200   -1.216400   -2.977000 C.2      1 SUBUNIT   -0.0430
      7 H7            1.103400    0.000000   -2.977000 H        1 SUBUNIT    0.0840
      8 H8           -2.658500    2.172000   -2.977000 H        1 SUBUNIT    0.0848
      9 H9           -2.658500   -2.171900   -2.977000 H        1 SUBUNIT    0.0632
     10 H10          -0.150500   -2.172000   -2.977000 H        1 SUBUNIT    0.0639
     11 C11          -4.137600   -0.014300   -2.977000 C.2      1 SUBUNIT    0.2487
     12 N12          -4.808500   -0.619900   -4.013400 N.am     1 SUBUNIT   -0.2816
     13 O13          -4.752100    0.509800   -2.057800 O.2      1 SUBUNIT   -0.2715
     14 H14          -4.196200   -1.022200   -4.721500 H        1 SUBUNIT    0.1560
     15 C15          -6.122300   -0.635400   -4.015700 C.2      1 SUBUNIT    0.0291
     16 C16          -6.846000    0.404500   -4.622200 C.2      1 SUBUNIT   -0.0552
     17 C17          -8.207200   -1.728700   -3.402500 C.2      1 SUBUNIT   -0.0749
     18 C18          -6.802900   -1.702000   -3.405900 C.2      1 SUBUNIT   -0.0444
     19 H19          -6.311200    1.242400   -5.101400 H        1 SUBUNIT    0.0602
     20 H20          -8.741900   -2.566600   -2.923400 H        1 SUBUNIT    0.0583
     21 H21          -6.234400   -2.518900   -2.929400 H        1 SUBUNIT    0.0639
     22 C22         -10.283200   -0.740400   -3.990900 C.2      1 SUBUNIT   -0.0756
     23 C23         -11.006900    0.299500   -4.597400 C.2      1 SUBUNIT   -0.0517
     24 C24         -10.326400    1.366000   -5.207300 C.2      1 SUBUNIT    0.0138
     25 C25          -8.922100    1.392700   -5.210600 C.2      1 SUBUNIT   -0.0624
     26 C26          -8.198300    0.353000   -4.604200 C.3      1 SUBUNIT    0.0480
     27 C27          -8.879000   -0.713700   -3.994300 C.3      1 SUBUNIT    0.0452
     28 H28         -10.817900   -1.578300   -3.511800 H        1 SUBUNIT    0.0583
     29 H29         -12.110200    0.278300   -4.594800 H        1 SUBUNIT    0.0631
     30 Br30        -11.320100    2.793700   -6.040000 Br       1 SUBUNIT   -0.0512
     31 H31          -8.387400    2.230600   -5.689700 H        1 SUBUNIT    0.0594
@<TRIPOS>BOND
     1    1    2 2
     2    1    6 1
     3    1    7 1
     4    2    3 1
     5    3    4 2
     6    3    8 1
     7    4    5 1
     8    4   11 1
     9    5    6 2
    10    5    9 1
    11    6   10 1
    12   11   12 1
    13   11   13 2
    14   12   14 1
    15   12   15 1
    16   15   16 2
    17   15   18 1
    18   16   26 1
    19   16   19 1
    20   17   27 1
    21   17   18 2
    22   17   20 1
    23   18   21 1
    24   22   23 2
    25   22   27 1
    26   22   28 1
    27   23   24 1
    28   23   29 1
    29   24   25 2
    30   24   30 1
    31   25   26 1
    32   25   31 1
    33   26   27 1
@<SCITEGIC>ATOM_PROPERTY
Formal Charge
SciTegic.value.StringValue
1 0
2 0
3 0
4 0
5 0
6 0
7 0
8 0
9 0
10 0
11 0
12 0
13 0
14 0
15 0
16 0
17 0
18 0
19 0
20 0
21 0
22 0
23 0
24 0
25 0
26 0
27 0
28 0
29 0
30 0
31 0

@<SCITEGIC>ATOM_PROPERTY
pdb_tempFactor
SciTegic.value.DoubleValue
1 0.00
2 0.00
3 0.00
4 0.00
5 0.00
6 0.00
7 0.00
8 0.00
9 0.00
10 0.00
11 0.00
12 0.00
13 0.00
14 0.00
15 0.00
16 0.00
17 0.00
18 0.00
19 0.00
20 0.00
21 0.00
22 0.00
23 0.00
24 0.00
25 0.00
26 0.00
27 0.00
28 0.00
29 0.00
30 0.00
31 0.00

@<SCITEGIC>ATOM_PROPERTY
pdb_occupancy
SciTegic.value.DoubleValue
1 1.00
2 1.00
3 1.00
4 1.00
5 1.00
6 1.00
7 1.00
8 1.00
9 1.00
10 1.00
11 1.00
12 1.00
13 1.00
14 1.00
15 1.00
16 1.00
17 1.00
18 1.00
19 1.00
20 1.00
21 1.00
22 1.00
23 1.00
24 1.00
25 1.00
26 1.00
27 1.00
28 1.00
29 1.00
30 1.00
31 1.00

#	copyright 2023 drugdesign.org
#	Creation time:	2024-01-11T10:58:48Z

@<SCITEGIC>ROOT_PROPERTY
Ligand:MaximumNumberOfAtoms
SciTegic.value.IntegerValue
100

@<SCITEGIC>ROOT_PROPERTY
Ligand:HydrogenAtomsCountTowardsMaximum
SciTegic.value.BooleanValue
FALSE

@<TRIPOS>MOLECULE
2_bond_rotate_all.sd
   31    33     0 0 0
SMALL
USER_CHARGES


@<TRIPOS>ATOM
      1 C1            0.000000    0.000000   -2.977000 C.2      1 SUBUNIT    0.0268
      2 N2           -0.702300    1.216400   -2.977000 N.2      1 SUBUNIT   -0.2639
      3 C3           -2.106800    1.216400   -2.977000 C.2      1 SUBUNIT    0.0393
      4 C4           -2.809000    0.000000   -2.977000 C.2      1 SUBUNIT    0.0557
      5 C5           -2.106800   -1.216400   -2.977000 C.2      1 SUBUNIT   -0.0466
      6 C6           -0.702200   -1.216400   -2.977000 C.2      1 SUBUNIT   -0.0430
      7 H7            1.103400    0.000000   -2.977000 H        1 SUBUNIT    0.0840
      8 H8           -2.658500    2.172000   -2.977000 H        1 SUBUNIT    0.0848
      9 H9           -2.658500   -2.171900   -2.977000 H        1 SUBUNIT    0.0632
     10 H10          -0.150500   -2.172000   -2.977000 H        1 SUBUNIT    0.0639
     11 C11          -4.137600   -0.014300   -2.977000 C.2      1 SUBUNIT    0.2487
     12 N12          -4.808500   -0.619900   -4.013400 N.am     1 SUBUNIT   -0.2816
     13 O13          -4.752100    0.509800   -2.057800 O.2      1 SUBUNIT   -0.2715
     14 H14          -4.196200   -1.022200   -4.721500 H        1 SUBUNIT    0.1560
     15 C15          -6.122300   -0.635400   -4.015700 C.2      1 SUBUNIT    0.0291
     16 C16          -6.840000   -0.038600   -5.065300 C.2      1 SUBUNIT   -0.0552
     17 C17          -8.213400   -1.277100   -2.950800 C.2      1 SUBUNIT   -0.0749
     18 C18          -6.808900   -1.254600   -2.958500 C.2      1 SUBUNIT   -0.0444
     19 H19          -6.300400    0.447900   -5.895900 H        1 SUBUNIT    0.0602
     20 H20          -8.752800   -1.763500   -2.120300 H        1 SUBUNIT    0.0583
     21 H21          -6.245200   -1.723500   -2.133900 H        1 SUBUNIT    0.0639
     22 C22         -10.283600   -0.716700   -3.967300 C.2      1 SUBUNIT   -0.0756
     23 C23         -11.001200   -0.119900   -5.016900 C.2      1 SUBUNIT   -0.0517
     24 C24         -10.314600    0.499300   -6.074100 C.2      1 SUBUNIT    0.0138
     25 C25          -8.910300    0.521700   -6.081700 C.2      1 SUBUNIT   -0.0624
     26 C26          -8.192500   -0.075000   -5.032200 C.3      1 SUBUNIT    0.0480
     27 C27          -8.879200   -0.694300   -3.974900 C.3      1 SUBUNIT    0.0452
     28 H28         -10.823000   -1.203200   -3.136700 H        1 SUBUNIT    0.0583
     29 H29         -12.104600   -0.137600   -5.010800 H        1 SUBUNIT    0.0631
     30 Br30        -11.300000    1.318700   -7.515100 Br       1 SUBUNIT   -0.0512
     31 H31          -8.370800    1.008200   -6.912300 H        1 SUBUNIT    0.0594
@<TRIPOS>BOND
     1    1    2 2
     2    1    6 1
     3    1    7 1
     4    2    3 1
     5    3    4 2
     6    3    8 1
     7    4    5 1
     8    4   11 1
     9    5    6 2
    10    5    9 1
    11    6   10 1
    12   11   12 1
    13   11   13 2
    14   12   14 1
    15   12   15 1
    16   15   16 2
    17   15   18 1
    18   16   26 1
    19   16   19 1
    20   17   27 1
    21   17   18 2
    22   17   20 1
    23   18   21 1
    24   22   23 2
    25   22   27 1
    26   22   28 1
    27   23   24 1
    28   23   29 1
    29   24   25 2
    30   24   30 1
    31   25   26 1
    32   25   31 1
    33   26   27 1
@<SCITEGIC>ATOM_PROPERTY
Formal Charge
SciTegic.value.StringValue
1 0
2 0
3 0
4 0
5 0
6 0
7 0
8 0
9 0
10 0
11 0
12 0
13 0
14 0
15 0
16 0
17 0
18 0
19 0
20 0
21 0
22 0
23 0
24 0
25 0
26 0
27 0
28 0
29 0
30 0
31 0

@<SCITEGIC>ATOM_PROPERTY
pdb_tempFactor
SciTegic.value.DoubleValue
1 0.00
2 0.00
3 0.00
4 0.00
5 0.00
6 0.00
7 0.00
8 0.00
9 0.00
10 0.00
11 0.00
12 0.00
13 0.00
14 0.00
15 0.00
16 0.00
17 0.00
18 0.00
19 0.00
20 0.00
21 0.00
22 0.00
23 0.00
24 0.00
25 0.00
26 0.00
27 0.00
28 0.00
29 0.00
30 0.00
31 0.00

@<SCITEGIC>ATOM_PROPERTY
pdb_occupancy
SciTegic.value.DoubleValue
1 1.00
2 1.00
3 1.00
4 1.00
5 1.00
6 1.00
7 1.00
8 1.00
9 1.00
10 1.00
11 1.00
12 1.00
13 1.00
14 1.00
15 1.00
16 1.00
17 1.00
18 1.00
19 1.00
20 1.00
21 1.00
22 1.00
23 1.00
24 1.00
25 1.00
26 1.00
27 1.00
28 1.00
29 1.00
30 1.00
31 1.00

#	copyright 2023 drugdesign.org
#	Creation time:	2024-01-11T10:58:48Z

@<SCITEGIC>ROOT_PROPERTY
Ligand:MaximumNumberOfAtoms
SciTegic.value.IntegerValue
100

@<SCITEGIC>ROOT_PROPERTY
Ligand:HydrogenAtomsCountTowardsMaximum
SciTegic.value.BooleanValue
FALSE

@<TRIPOS>MOLECULE
2_bond_rotate_all.sd
   31    33     0 0 0
SMALL
USER_CHARGES


@<TRIPOS>ATOM
      1 C1            0.000000    0.000000   -2.977000 C.2      1 SUBUNIT    0.0268
      2 N2           -0.702300    1.216400   -2.977000 N.2      1 SUBUNIT   -0.2639
      3 C3           -2.106800    1.216400   -2.977000 C.2      1 SUBUNIT    0.0393
      4 C4           -2.809000    0.000000   -2.977000 C.2      1 SUBUNIT    0.0557
      5 C5           -2.106800   -1.216400   -2.977000 C.2      1 SUBUNIT   -0.0466
      6 C6           -0.702200   -1.216400   -2.977000 C.2      1 SUBUNIT   -0.0430
      7 H7            1.103400    0.000000   -2.977000 H        1 SUBUNIT    0.0840
      8 H8           -2.658500    2.172000   -2.977000 H        1 SUBUNIT    0.0848
      9 H9           -2.658500   -2.171900   -2.977000 H        1 SUBUNIT    0.0632
     10 H10          -0.150500   -2.172000   -2.977000 H        1 SUBUNIT    0.0639
     11 C11          -4.137600   -0.014300   -2.977000 C.2      1 SUBUNIT    0.2487
     12 N12          -4.808500   -0.619900   -4.013400 N.am     1 SUBUNIT   -0.2816
     13 O13          -4.752100    0.509800   -2.057800 O.2      1 SUBUNIT   -0.2715
     14 H14          -4.196200   -1.022200   -4.721500 H        1 SUBUNIT    0.1560
     15 C15          -6.122300   -0.635400   -4.015700 C.2      1 SUBUNIT    0.0291
     16 C16          -6.832600   -0.643800   -5.227500 C.2      1 SUBUNIT   -0.0552
     17 C17          -8.220900   -0.660100   -2.785500 C.2      1 SUBUNIT   -0.0749
     18 C18          -6.816400   -0.643600   -2.794700 C.2      1 SUBUNIT   -0.0444
     19 H19          -6.287100   -0.637300   -6.186700 H        1 SUBUNIT    0.0602
     20 H20          -8.766300   -0.666600   -1.826400 H        1 SUBUNIT    0.0583
     21 H21          -6.258500   -0.637000   -1.842800 H        1 SUBUNIT    0.0639
     22 C22         -10.284000   -0.684500   -3.958600 C.2      1 SUBUNIT   -0.0756
     23 C23         -10.994200   -0.692800   -5.170400 C.2      1 SUBUNIT   -0.0517
     24 C24         -10.300100   -0.684700   -6.391300 C.2      1 SUBUNIT    0.0138
     25 C25          -8.895700   -0.668100   -6.400500 C.2      1 SUBUNIT   -0.0624
     26 C26          -8.185400   -0.659700   -5.188900 C.3      1 SUBUNIT    0.0480
     27 C27          -8.879600   -0.667900   -3.967800 C.3      1 SUBUNIT    0.0452
     28 H28         -10.829300   -0.690900   -2.999400 H        1 SUBUNIT    0.0583
     29 H29         -12.097600   -0.705900   -5.163000 H        1 SUBUNIT    0.0631
     30 Br30        -11.275300   -0.696200   -8.055100 Br       1 SUBUNIT   -0.0512
     31 H31          -8.350300   -0.661700   -7.359700 H        1 SUBUNIT    0.0594
@<TRIPOS>BOND
     1    1    2 2
     2    1    6 1
     3    1    7 1
     4    2    3 1
     5    3    4 2
     6    3    8 1
     7    4    5 1
     8    4   11 1
     9    5    6 2
    10    5    9 1
    11    6   10 1
    12   11   12 1
    13   11   13 2
    14   12   14 1
    15   12   15 1
    16   15   16 2
    17   15   18 1
    18   16   26 1
    19   16   19 1
    20   17   27 1
    21   17   18 2
    22   17   20 1
    23   18   21 1
    24   22   23 2
    25   22   27 1
    26   22   28 1
    27   23   24 1
    28   23   29 1
    29   24   25 2
    30   24   30 1
    31   25   26 1
    32   25   31 1
    33   26   27 1
@<SCITEGIC>ATOM_PROPERTY
Formal Charge
SciTegic.value.StringValue
1 0
2 0
3 0
4 0
5 0
6 0
7 0
8 0
9 0
10 0
11 0
12 0
13 0
14 0
15 0
16 0
17 0
18 0
19 0
20 0
21 0
22 0
23 0
24 0
25 0
26 0
27 0
28 0
29 0
30 0
31 0

@<SCITEGIC>ATOM_PROPERTY
pdb_tempFactor
SciTegic.value.DoubleValue
1 0.00
2 0.00
3 0.00
4 0.00
5 0.00
6 0.00
7 0.00
8 0.00
9 0.00
10 0.00
11 0.00
12 0.00
13 0.00
14 0.00
15 0.00
16 0.00
17 0.00
18 0.00
19 0.00
20 0.00
21 0.00
22 0.00
23 0.00
24 0.00
25 0.00
26 0.00
27 0.00
28 0.00
29 0.00
30 0.00
31 0.00

@<SCITEGIC>ATOM_PROPERTY
pdb_occupancy
SciTegic.value.DoubleValue
1 1.00
2 1.00
3 1.00
4 1.00
5 1.00
6 1.00
7 1.00
8 1.00
9 1.00
10 1.00
11 1.00
12 1.00
13 1.00
14 1.00
15 1.00
16 1.00
17 1.00
18 1.00
19 1.00
20 1.00
21 1.00
22 1.00
23 1.00
24 1.00
25 1.00
26 1.00
27 1.00
28 1.00
29 1.00
30 1.00
31 1.00

#	copyright 2023 drugdesign.org
#	Creation time:	2024-01-11T10:58:48Z

@<SCITEGIC>ROOT_PROPERTY
Ligand:MaximumNumberOfAtoms
SciTegic.value.IntegerValue
100

@<SCITEGIC>ROOT_PROPERTY
Ligand:HydrogenAtomsCountTowardsMaximum
SciTegic.value.BooleanValue
FALSE

@<TRIPOS>MOLECULE
2_bond_rotate_all.sd
   31    33     0 0 0
SMALL
USER_CHARGES


@<TRIPOS>ATOM
      1 C1            0.000000    0.000000   -2.977000 C.2      1 SUBUNIT    0.0268
      2 N2           -0.702300    1.216400   -2.977000 N.2      1 SUBUNIT   -0.2639
      3 C3           -2.106800    1.216400   -2.977000 C.2      1 SUBUNIT    0.0393
      4 C4           -2.809000    0.000000   -2.977000 C.2      1 SUBUNIT    0.0557
      5 C5           -2.106800   -1.216400   -2.977000 C.2      1 SUBUNIT   -0.0466
      6 C6           -0.702200   -1.216400   -2.977000 C.2      1 SUBUNIT   -0.0430
      7 H7            1.103400    0.000000   -2.977000 H        1 SUBUNIT    0.0840
      8 H8           -2.658500    2.172000   -2.977000 H        1 SUBUNIT    0.0848
      9 H9           -2.658500   -2.171900   -2.977000 H        1 SUBUNIT    0.0632
     10 H10          -0.150500   -2.172000   -2.977000 H        1 SUBUNIT    0.0639
     11 C11          -4.137600   -0.014300   -2.977000 C.2      1 SUBUNIT    0.2487
     12 N12          -4.808500   -0.619900   -4.013400 N.am     1 SUBUNIT   -0.2816
     13 O13          -4.752100    0.509800   -2.057800 O.2      1 SUBUNIT   -0.2715
     14 H14          -4.196200   -1.022200   -4.721500 H        1 SUBUNIT    0.1560
     15 C15          -6.122300   -0.635400   -4.015700 C.2      1 SUBUNIT    0.0291
     16 C16          -6.825700   -1.249000   -5.065300 C.2      1 SUBUNIT   -0.0552
     17 C17          -8.227900   -0.043200   -2.950800 C.2      1 SUBUNIT   -0.0749
     18 C18          -6.823400   -0.032500   -2.958500 C.2      1 SUBUNIT   -0.0444
     19 H19          -6.274800   -1.722600   -5.895900 H        1 SUBUNIT    0.0602
     20 H20          -8.778700    0.430400   -2.120300 H        1 SUBUNIT    0.0583
     21 H21          -6.270800    0.449500   -2.133900 H        1 SUBUNIT    0.0639
     22 C22         -10.284300   -0.652200   -3.967300 C.2      1 SUBUNIT   -0.0756
     23 C23         -10.987700   -1.265700   -5.016900 C.2      1 SUBUNIT   -0.0517
     24 C24         -10.286700   -1.868600   -6.074100 C.2      1 SUBUNIT    0.0138
     25 C25          -8.882200   -1.857900   -6.081700 C.2      1 SUBUNIT   -0.0624
     26 C26          -8.178700   -1.244400   -5.032200 C.3      1 SUBUNIT    0.0480
     27 C27          -8.879800   -0.641500   -3.974900 C.3      1 SUBUNIT    0.0452
     28 H28         -10.835100   -0.178600   -3.136700 H        1 SUBUNIT    0.0583
     29 H29         -12.091200   -1.274100   -5.010700 H        1 SUBUNIT    0.0631
     30 Br30        -11.252500   -2.711000   -7.515100 Br       1 SUBUNIT   -0.0512
     31 H31          -8.331400   -2.331500   -6.912300 H        1 SUBUNIT    0.0594
@<TRIPOS>BOND
     1    1    2 2
     2    1    6 1
     3    1    7 1
     4    2    3 1
     5    3    4 2
     6    3    8 1
     7    4    5 1
     8    4   11 1
     9    5    6 2
    10    5    9 1
    11    6   10 1
    12   11   12 1
    13   11   13 2
    14   12   14 1
    15   12   15 1
    16   15   16 2
    17   15   18 1
    18   16   26 1
    19   16   19 1
    20   17   27 1
    21   17   18 2
    22   17   20 1
    23   18   21 1
    24   22   23 2
    25   22   27 1
    26   22   28 1
    27   23   24 1
    28   23   29 1
    29   24   25 2
    30   24   30 1
    31   25   26 1
    32   25   31 1
    33   26   27 1
@<SCITEGIC>ATOM_PROPERTY
Formal Charge
SciTegic.value.StringValue
1 0
2 0
3 0
4 0
5 0
6 0
7 0
8 0
9 0
10 0
11 0
12 0
13 0
14 0
15 0
16 0
17 0
18 0
19 0
20 0
21 0
22 0
23 0
24 0
25 0
26 0
27 0
28 0
29 0
30 0
31 0

@<SCITEGIC>ATOM_PROPERTY
pdb_tempFactor
SciTegic.value.DoubleValue
1 0.00
2 0.00
3 0.00
4 0.00
5 0.00
6 0.00
7 0.00
8 0.00
9 0.00
10 0.00
11 0.00
12 0.00
13 0.00
14 0.00
15 0.00
16 0.00
17 0.00
18 0.00
19 0.00
20 0.00
21 0.00
22 0.00
23 0.00
24 0.00
25 0.00
26 0.00
27 0.00
28 0.00
29 0.00
30 0.00
31 0.00

@<SCITEGIC>ATOM_PROPERTY
pdb_occupancy
SciTegic.value.DoubleValue
1 1.00
2 1.00
3 1.00
4 1.00
5 1.00
6 1.00
7 1.00
8 1.00
9 1.00
10 1.00
11 1.00
12 1.00
13 1.00
14 1.00
15 1.00
16 1.00
17 1.00
18 1.00
19 1.00
20 1.00
21 1.00
22 1.00
23 1.00
24 1.00
25 1.00
26 1.00
27 1.00
28 1.00
29 1.00
30 1.00
31 1.00

#	copyright 2023 drugdesign.org
#	Creation time:	2024-01-11T10:58:48Z

@<SCITEGIC>ROOT_PROPERTY
Ligand:MaximumNumberOfAtoms
SciTegic.value.IntegerValue
100

@<SCITEGIC>ROOT_PROPERTY
Ligand:HydrogenAtomsCountTowardsMaximum
SciTegic.value.BooleanValue
FALSE

@<TRIPOS>MOLECULE
2_bond_rotate_all.sd
   31    33     0 0 0
SMALL
USER_CHARGES


@<TRIPOS>ATOM
      1 C1            0.000000    0.000000   -2.977000 C.2      1 SUBUNIT    0.0268
      2 N2           -0.702300    1.216400   -2.977000 N.2      1 SUBUNIT   -0.2639
      3 C3           -2.106800    1.216400   -2.977000 C.2      1 SUBUNIT    0.0393
      4 C4           -2.809000    0.000000   -2.977000 C.2      1 SUBUNIT    0.0557
      5 C5           -2.106800   -1.216400   -2.977000 C.2      1 SUBUNIT   -0.0466
      6 C6           -0.702200   -1.216400   -2.977000 C.2      1 SUBUNIT   -0.0430
      7 H7            1.103400    0.000000   -2.977000 H        1 SUBUNIT    0.0840
      8 H8           -2.658500    2.172000   -2.977000 H        1 SUBUNIT    0.0848
      9 H9           -2.658500   -2.171900   -2.977000 H        1 SUBUNIT    0.0632
     10 H10          -0.150500   -2.172000   -2.977000 H        1 SUBUNIT    0.0639
     11 C11          -4.137600   -0.014300   -2.977000 C.2      1 SUBUNIT    0.2487
     12 N12          -4.808500   -0.619900   -4.013400 N.am     1 SUBUNIT   -0.2816
     13 O13          -4.752100    0.509800   -2.057800 O.2      1 SUBUNIT   -0.2715
     14 H14          -4.196200   -1.022200   -4.721500 H        1 SUBUNIT    0.1560
     15 C15          -6.122300   -0.635400   -4.015700 C.2      1 SUBUNIT    0.0291
     16 C16          -6.821300   -1.692300   -4.621700 C.2      1 SUBUNIT   -0.0552
     17 C17          -8.232400    0.408800   -3.403000 C.2      1 SUBUNIT   -0.0749
     18 C18          -6.827800    0.415200   -3.406400 C.2      1 SUBUNIT   -0.0444
     19 H19          -6.266900   -2.517600   -5.100400 H        1 SUBUNIT    0.0602
     20 H20          -8.786700    1.234000   -2.924300 H        1 SUBUNIT    0.0583
     21 H21          -6.278700    1.245500   -2.930300 H        1 SUBUNIT    0.0639
     22 C22         -10.284600   -0.628500   -3.991000 C.2      1 SUBUNIT   -0.0756
     23 C23         -10.983500   -1.685400   -4.597000 C.2      1 SUBUNIT   -0.0517
     24 C24         -10.278000   -2.735900   -5.206300 C.2      1 SUBUNIT    0.0138
     25 C25          -8.873500   -2.729500   -5.209600 C.2      1 SUBUNIT   -0.0624
     26 C26          -8.174500   -1.672700   -4.603700 C.3      1 SUBUNIT    0.0480
     27 C27          -8.880000   -0.622100   -3.994300 C.3      1 SUBUNIT    0.0452
     28 H28         -10.838800    0.196800   -3.512200 H        1 SUBUNIT    0.0583
     29 H29         -12.087000   -1.690300   -4.594300 H        1 SUBUNIT    0.0631
     30 Br30        -11.237700   -4.187100   -6.038300 Br       1 SUBUNIT   -0.0512
     31 H31          -8.319200   -3.554800   -5.688300 H        1 SUBUNIT    0.0594
@<TRIPOS>BOND
     1    1    2 2
     2    1    6 1
     3    1    7 1
     4    2    3 1
     5    3    4 2
     6    3    8 1
     7    4    5 1
     8    4   11 1
     9    5    6 2
    10    5    9 1
    11    6   10 1
    12   11   12 1
    13   11   13 2
    14   12   14 1
    15   12   15 1
    16   15   16 2
    17   15   18 1
    18   16   26 1
    19   16   19 1
    20   17   27 1
    21   17   18 2
    22   17   20 1
    23   18   21 1
    24   22   23 2
    25   22   27 1
    26   22   28 1
    27   23   24 1
    28   23   29 1
    29   24   25 2
    30   24   30 1
    31   25   26 1
    32   25   31 1
    33   26   27 1
@<SCITEGIC>ATOM_PROPERTY
Formal Charge
SciTegic.value.StringValue
1 0
2 0
3 0
4 0
5 0
6 0
7 0
8 0
9 0
10 0
11 0
12 0
13 0
14 0
15 0
16 0
17 0
18 0
19 0
20 0
21 0
22 0
23 0
24 0
25 0
26 0
27 0
28 0
29 0
30 0
31 0

@<SCITEGIC>ATOM_PROPERTY
pdb_tempFactor
SciTegic.value.DoubleValue
1 0.00
2 0.00
3 0.00
4 0.00
5 0.00
6 0.00
7 0.00
8 0.00
9 0.00
10 0.00
11 0.00
12 0.00
13 0.00
14 0.00
15 0.00
16 0.00
17 0.00
18 0.00
19 0.00
20 0.00
21 0.00
22 0.00
23 0.00
24 0.00
25 0.00
26 0.00
27 0.00
28 0.00
29 0.00
30 0.00
31 0.00

@<SCITEGIC>ATOM_PROPERTY
pdb_occupancy
SciTegic.value.DoubleValue
1 1.00
2 1.00
3 1.00
4 1.00
5 1.00
6 1.00
7 1.00
8 1.00
9 1.00
10 1.00
11 1.00
12 1.00
13 1.00
14 1.00
15 1.00
16 1.00
17 1.00
18 1.00
19 1.00
20 1.00
21 1.00
22 1.00
23 1.00
24 1.00
25 1.00
26 1.00
27 1.00
28 1.00
29 1.00
30 1.00
31 1.00

#	copyright 2023 drugdesign.org
#	Creation time:	2024-01-11T10:58:48Z

@<SCITEGIC>ROOT_PROPERTY
Ligand:MaximumNumberOfAtoms
SciTegic.value.IntegerValue
100

@<SCITEGIC>ROOT_PROPERTY
Ligand:HydrogenAtomsCountTowardsMaximum
SciTegic.value.BooleanValue
FALSE

@<TRIPOS>MOLECULE
2_bond_rotate_all.sd
   31    33     0 0 0
SMALL
USER_CHARGES


@<TRIPOS>ATOM
      1 C1            0.000000    0.000000   -2.977000 C.2      1 SUBUNIT    0.0268
      2 N2           -0.702300    1.216400   -2.977000 N.2      1 SUBUNIT   -0.2639
      3 C3           -2.106800    1.216400   -2.977000 C.2      1 SUBUNIT    0.0393
      4 C4           -2.809000    0.000000   -2.977000 C.2      1 SUBUNIT    0.0557
      5 C5           -2.106800   -1.216400   -2.977000 C.2      1 SUBUNIT   -0.0466
      6 C6           -0.702200   -1.216400   -2.977000 C.2      1 SUBUNIT   -0.0430
      7 H7            1.103400    0.000000   -2.977000 H        1 SUBUNIT    0.0840
      8 H8           -2.658500    2.172000   -2.977000 H        1 SUBUNIT    0.0848
      9 H9           -2.658500   -2.171900   -2.977000 H        1 SUBUNIT    0.0632
     10 H10          -0.150500   -2.172000   -2.977000 H        1 SUBUNIT    0.0639
     11 C11          -4.137600   -0.014300   -2.977000 C.2      1 SUBUNIT    0.2487
     12 N12          -4.808500   -0.619900   -4.013400 N.am     1 SUBUNIT   -0.2816
     13 O13          -4.752100    0.509800   -2.057800 O.2      1 SUBUNIT   -0.2715
     14 H14          -4.196200   -1.022200   -4.721500 H        1 SUBUNIT    0.1560
     15 C15          -6.122300   -0.635400   -4.015700 C.2      1 SUBUNIT    0.0291
     16 C16          -6.820500   -1.854200   -4.017000 C.2      1 SUBUNIT   -0.0552
     17 C17          -8.233300    0.573800   -4.019500 C.2      1 SUBUNIT   -0.0749
     18 C18          -6.828700    0.578600   -4.017000 C.2      1 SUBUNIT   -0.0444
     19 H19          -6.265400   -2.807900   -4.016000 H        1 SUBUNIT    0.0602
     20 H20          -8.788200    1.527500   -4.020500 H        1 SUBUNIT    0.0583
     21 H21          -6.280200    1.536100   -4.016000 H        1 SUBUNIT    0.0639
     22 C22         -10.284600   -0.619900   -4.023200 C.2      1 SUBUNIT   -0.0756
     23 C23         -10.982800   -1.838700   -4.024500 C.2      1 SUBUNIT   -0.0517
     24 C24         -10.276400   -3.052600   -4.023200 C.2      1 SUBUNIT    0.0138
     25 C25          -8.871900   -3.047800   -4.020700 C.2      1 SUBUNIT   -0.0624
     26 C26          -8.173700   -1.829100   -4.019400 C.3      1 SUBUNIT    0.0480
     27 C27          -8.880100   -0.615100   -4.020700 C.3      1 SUBUNIT    0.0452
     28 H28         -10.839500    0.333800   -4.024200 H        1 SUBUNIT    0.0583
     29 H29         -12.086200   -1.842300   -4.026500 H        1 SUBUNIT    0.0631
     30 Br30        -11.235000   -4.726000   -4.025000 Br       1 SUBUNIT   -0.0512
     31 H31          -8.316900   -4.001500   -4.019700 H        1 SUBUNIT    0.0594
@<TRIPOS>BOND
     1    1    2 2
     2    1    6 1
     3    1    7 1
     4    2    3 1
     5    3    4 2
     6    3    8 1
     7    4    5 1
     8    4   11 1
     9    5    6 2
    10    5    9 1
    11    6   10 1
    12   11   12 1
    13   11   13 2
    14   12   14 1
    15   12   15 1
    16   15   16 2
    17   15   18 1
    18   16   26 1
    19   16   19 1
    20   17   27 1
    21   17   18 2
    22   17   20 1
    23   18   21 1
    24   22   23 2
    25   22   27 1
    26   22   28 1
    27   23   24 1
    28   23   29 1
    29   24   25 2
    30   24   30 1
    31   25   26 1
    32   25   31 1
    33   26   27 1
@<SCITEGIC>ATOM_PROPERTY
Formal Charge
SciTegic.value.StringValue
1 0
2 0
3 0
4 0
5 0
6 0
7 0
8 0
9 0
10 0
11 0
12 0
13 0
14 0
15 0
16 0
17 0
18 0
19 0
20 0
21 0
22 0
23 0
24 0
25 0
26 0
27 0
28 0
29 0
30 0
31 0

@<SCITEGIC>ATOM_PROPERTY
pdb_tempFactor
SciTegic.value.DoubleValue
1 0.00
2 0.00
3 0.00
4 0.00
5 0.00
6 0.00
7 0.00
8 0.00
9 0.00
10 0.00
11 0.00
12 0.00
13 0.00
14 0.00
15 0.00
16 0.00
17 0.00
18 0.00
19 0.00
20 0.00
21 0.00
22 0.00
23 0.00
24 0.00
25 0.00
26 0.00
27 0.00
28 0.00
29 0.00
30 0.00
31 0.00

@<SCITEGIC>ATOM_PROPERTY
pdb_occupancy
SciTegic.value.DoubleValue
1 1.00
2 1.00
3 1.00
4 1.00
5 1.00
6 1.00
7 1.00
8 1.00
9 1.00
10 1.00
11 1.00
12 1.00
13 1.00
14 1.00
15 1.00
16 1.00
17 1.00
18 1.00
19 1.00
20 1.00
21 1.00
22 1.00
23 1.00
24 1.00
25 1.00
26 1.00
27 1.00
28 1.00
29 1.00
30 1.00
31 1.00

#	copyright 2023 drugdesign.org
#	Creation time:	2024-01-11T10:58:48Z

@<SCITEGIC>ROOT_PROPERTY
Ligand:MaximumNumberOfAtoms
SciTegic.value.IntegerValue
100

@<SCITEGIC>ROOT_PROPERTY
Ligand:HydrogenAtomsCountTowardsMaximum
SciTegic.value.BooleanValue
FALSE

@<TRIPOS>MOLECULE
2_bond_rotate_all.sd
   31    33     0 0 0
SMALL
USER_CHARGES


@<TRIPOS>ATOM
      1 C1            0.000000    0.000000   -2.977000 C.2      1 SUBUNIT    0.0268
      2 N2           -0.702300    1.216400   -2.977000 N.2      1 SUBUNIT   -0.2639
      3 C3           -2.106800    1.216400   -2.977000 C.2      1 SUBUNIT    0.0393
      4 C4           -2.809000    0.000000   -2.977000 C.2      1 SUBUNIT    0.0557
      5 C5           -2.106800   -1.216400   -2.977000 C.2      1 SUBUNIT   -0.0466
      6 C6           -0.702200   -1.216400   -2.977000 C.2      1 SUBUNIT   -0.0430
      7 H7            1.103400    0.000000   -2.977000 H        1 SUBUNIT    0.0840
      8 H8           -2.658500    2.172000   -2.977000 H        1 SUBUNIT    0.0848
      9 H9           -2.658500   -2.171900   -2.977000 H        1 SUBUNIT    0.0632
     10 H10          -0.150500   -2.172000   -2.977000 H        1 SUBUNIT    0.0639
     11 C11          -4.137600   -0.014300   -2.977000 C.2      1 SUBUNIT    0.2487
     12 N12          -4.808500   -0.619900   -4.013400 N.am     1 SUBUNIT   -0.2816
     13 O13          -4.752100    0.509800   -2.057800 O.2      1 SUBUNIT   -0.2715
     14 H14          -4.196200   -1.022200   -4.721500 H        1 SUBUNIT    0.1560
     15 C15          -6.122300   -0.635400   -4.015700 C.2      1 SUBUNIT    0.0291
     16 C16          -6.823500   -1.692000   -3.411800 C.2      1 SUBUNIT   -0.0552
     17 C17          -8.230200    0.408500   -4.636500 C.2      1 SUBUNIT   -0.0749
     18 C18          -6.825600    0.414900   -4.628100 C.2      1 SUBUNIT   -0.0444
     19 H19          -6.270800   -2.517100   -2.930700 H        1 SUBUNIT    0.0602
     20 H20          -8.782800    1.233500   -5.117500 H        1 SUBUNIT    0.0583
     21 H21          -6.274800    1.245000   -5.102600 H        1 SUBUNIT    0.0639
     22 C22         -10.284400   -0.628500   -4.055500 C.2      1 SUBUNIT   -0.0756
     23 C23         -10.985600   -1.685200   -3.451500 C.2      1 SUBUNIT   -0.0517
     24 C24         -10.282300   -2.735400   -2.839200 C.2      1 SUBUNIT    0.0138
     25 C25          -8.877800   -2.729000   -2.830800 C.2      1 SUBUNIT   -0.0624
     26 C26          -8.176600   -1.672400   -3.434700 C.3      1 SUBUNIT    0.0480
     27 C27          -8.879900   -0.622100   -4.047100 C.3      1 SUBUNIT    0.0452
     28 H28         -10.837000    0.196500   -4.536600 H        1 SUBUNIT    0.0583
     29 H29         -12.089000   -1.690100   -3.458200 H        1 SUBUNIT    0.0631
     30 Br30        -11.245000   -4.186200   -2.010000 Br       1 SUBUNIT   -0.0512
     31 H31          -8.325200   -3.554100   -2.349700 H        1 SUBUNIT    0.0594
@<TRIPOS>BOND
     1    1    2 2
     2    1    6 1
     3    1    7 1
     4    2    3 1
     5    3    4 2
     6    3    8 1
     7    4    5 1
     8    4   11 1
     9    5    6 2
    10    5    9 1
    11    6   10 1
    12   11   12 1
    13   11   13 2
    14   12   14 1
    15   12   15 1
    16   15   16 2
    17   15   18 1
    18   16   26 1
    19   16   19 1
    20   17   27 1
    21   17   18 2
    22   17   20 1
    23   18   21 1
    24   22   23 2
    25   22   27 1
    26   22   28 1
    27   23   24 1
    28   23   29 1
    29   24   25 2
    30   24   30 1
    31   25   26 1
    32   25   31 1
    33   26   27 1
@<SCITEGIC>ATOM_PROPERTY
Formal Charge
SciTegic.value.StringValue
1 0
2 0
3 0
4 0
5 0
6 0
7 0
8 0
9 0
10 0
11 0
12 0
13 0
14 0
15 0
16 0
17 0
18 0
19 0
20 0
21 0
22 0
23 0
24 0
25 0
26 0
27 0
28 0
29 0
30 0
31 0

@<SCITEGIC>ATOM_PROPERTY
pdb_tempFactor
SciTegic.value.DoubleValue
1 0.00
2 0.00
3 0.00
4 0.00
5 0.00
6 0.00
7 0.00
8 0.00
9 0.00
10 0.00
11 0.00
12 0.00
13 0.00
14 0.00
15 0.00
16 0.00
17 0.00
18 0.00
19 0.00
20 0.00
21 0.00
22 0.00
23 0.00
24 0.00
25 0.00
26 0.00
27 0.00
28 0.00
29 0.00
30 0.00
31 0.00

@<SCITEGIC>ATOM_PROPERTY
pdb_occupancy
SciTegic.value.DoubleValue
1 1.00
2 1.00
3 1.00
4 1.00
5 1.00
6 1.00
7 1.00
8 1.00
9 1.00
10 1.00
11 1.00
12 1.00
13 1.00
14 1.00
15 1.00
16 1.00
17 1.00
18 1.00
19 1.00
20 1.00
21 1.00
22 1.00
23 1.00
24 1.00
25 1.00
26 1.00
27 1.00
28 1.00
29 1.00
30 1.00
31 1.00

#	copyright 2023 drugdesign.org
#	Creation time:	2024-01-11T10:58:48Z

@<SCITEGIC>ROOT_PROPERTY
Ligand:MaximumNumberOfAtoms
SciTegic.value.IntegerValue
100

@<SCITEGIC>ROOT_PROPERTY
Ligand:HydrogenAtomsCountTowardsMaximum
SciTegic.value.BooleanValue
FALSE

@<TRIPOS>MOLECULE
2_bond_rotate_all.sd
   31    33     0 0 0
SMALL
USER_CHARGES


@<TRIPOS>ATOM
      1 C1            0.000000    0.000000   -2.977000 C.2      1 SUBUNIT    0.0268
      2 N2           -0.702300    1.216400   -2.977000 N.2      1 SUBUNIT   -0.2639
      3 C3           -2.106800    1.216400   -2.977000 C.2      1 SUBUNIT    0.0393
      4 C4           -2.809000    0.000000   -2.977000 C.2      1 SUBUNIT    0.0557
      5 C5           -2.106800   -1.216400   -2.977000 C.2      1 SUBUNIT   -0.0466
      6 C6           -0.702200   -1.216400   -2.977000 C.2      1 SUBUNIT   -0.0430
      7 H7            1.103400    0.000000   -2.977000 H        1 SUBUNIT    0.0840
      8 H8           -2.658500    2.172000   -2.977000 H        1 SUBUNIT    0.0848
      9 H9           -2.658500   -2.171900   -2.977000 H        1 SUBUNIT    0.0632
     10 H10          -0.150500   -2.172000   -2.977000 H        1 SUBUNIT    0.0639
     11 C11          -4.137600   -0.014300   -2.977000 C.2      1 SUBUNIT    0.2487
     12 N12          -4.808500   -0.619900   -4.013400 N.am     1 SUBUNIT   -0.2816
     13 O13          -4.752100    0.509800   -2.057800 O.2      1 SUBUNIT   -0.2715
     14 H14          -4.196200   -1.022200   -4.721500 H        1 SUBUNIT    0.1560
     15 C15          -6.122300   -0.635400   -4.015700 C.2      1 SUBUNIT    0.0291
     16 C16          -6.829500   -1.249000   -2.968700 C.2      1 SUBUNIT   -0.0552
     17 C17          -8.224100   -0.043100   -5.088200 C.2      1 SUBUNIT   -0.0749
     18 C18          -6.819600   -0.032400   -5.075500 C.2      1 SUBUNIT   -0.0444
     19 H19          -6.281600   -1.722700   -2.136200 H        1 SUBUNIT    0.0602
     20 H20          -8.771900    0.430500   -5.920600 H        1 SUBUNIT    0.0583
     21 H21          -6.264000    0.449600   -5.898000 H        1 SUBUNIT    0.0639
     22 C22         -10.284100   -0.652200   -4.079100 C.2      1 SUBUNIT   -0.0756
     23 C23         -10.991300   -1.265800   -3.032100 C.2      1 SUBUNIT   -0.0517
     24 C24         -10.294000   -1.868700   -1.972400 C.2      1 SUBUNIT    0.0138
     25 C25          -8.889600   -1.858000   -1.959700 C.2      1 SUBUNIT   -0.0624
     26 C26          -8.182400   -1.244400   -3.006700 C.3      1 SUBUNIT    0.0480
     27 C27          -8.879700   -0.641500   -4.066400 C.3      1 SUBUNIT    0.0452
     28 H28         -10.831900   -0.178500   -4.911700 H        1 SUBUNIT    0.0583
     29 H29         -12.094700   -1.274100   -3.042200 H        1 SUBUNIT    0.0631
     30 Br30        -11.265100   -2.711200   -0.534900 Br       1 SUBUNIT   -0.0512
     31 H31          -8.341800   -2.331700   -1.127200 H        1 SUBUNIT    0.0594
@<TRIPOS>BOND
     1    1    2 2
     2    1    6 1
     3    1    7 1
     4    2    3 1
     5    3    4 2
     6    3    8 1
     7    4    5 1
     8    4   11 1
     9    5    6 2
    10    5    9 1
    11    6   10 1
    12   11   12 1
    13   11   13 2
    14   12   14 1
    15   12   15 1
    16   15   16 2
    17   15   18 1
    18   16   26 1
    19   16   19 1
    20   17   27 1
    21   17   18 2
    22   17   20 1
    23   18   21 1
    24   22   23 2
    25   22   27 1
    26   22   28 1
    27   23   24 1
    28   23   29 1
    29   24   25 2
    30   24   30 1
    31   25   26 1
    32   25   31 1
    33   26   27 1
@<SCITEGIC>ATOM_PROPERTY
Formal Charge
SciTegic.value.StringValue
1 0
2 0
3 0
4 0
5 0
6 0
7 0
8 0
9 0
10 0
11 0
12 0
13 0
14 0
15 0
16 0
17 0
18 0
19 0
20 0
21 0
22 0
23 0
24 0
25 0
26 0
27 0
28 0
29 0
30 0
31 0

@<SCITEGIC>ATOM_PROPERTY
pdb_tempFactor
SciTegic.value.DoubleValue
1 0.00
2 0.00
3 0.00
4 0.00
5 0.00
6 0.00
7 0.00
8 0.00
9 0.00
10 0.00
11 0.00
12 0.00
13 0.00
14 0.00
15 0.00
16 0.00
17 0.00
18 0.00
19 0.00
20 0.00
21 0.00
22 0.00
23 0.00
24 0.00
25 0.00
26 0.00
27 0.00
28 0.00
29 0.00
30 0.00
31 0.00

@<SCITEGIC>ATOM_PROPERTY
pdb_occupancy
SciTegic.value.DoubleValue
1 1.00
2 1.00
3 1.00
4 1.00
5 1.00
6 1.00
7 1.00
8 1.00
9 1.00
10 1.00
11 1.00
12 1.00
13 1.00
14 1.00
15 1.00
16 1.00
17 1.00
18 1.00
19 1.00
20 1.00
21 1.00
22 1.00
23 1.00
24 1.00
25 1.00
26 1.00
27 1.00
28 1.00
29 1.00
30 1.00
31 1.00

#	copyright 2023 drugdesign.org
#	Creation time:	2024-01-11T10:58:48Z

@<SCITEGIC>ROOT_PROPERTY
Ligand:MaximumNumberOfAtoms
SciTegic.value.IntegerValue
100

@<SCITEGIC>ROOT_PROPERTY
Ligand:HydrogenAtomsCountTowardsMaximum
SciTegic.value.BooleanValue
FALSE

@<TRIPOS>MOLECULE
2_bond_rotate_all.sd
   31    33     0 0 0
SMALL
USER_CHARGES


@<TRIPOS>ATOM
      1 C1            0.000000    0.000000   -2.977000 C.2      1 SUBUNIT    0.0268
      2 N2           -0.702300    1.216400   -2.977000 N.2      1 SUBUNIT   -0.2639
      3 C3           -2.106800    1.216400   -2.977000 C.2      1 SUBUNIT    0.0393
      4 C4           -2.809000    0.000000   -2.977000 C.2      1 SUBUNIT    0.0557
      5 C5           -2.106800   -1.216400   -2.977000 C.2      1 SUBUNIT   -0.0466
      6 C6           -0.702200   -1.216400   -2.977000 C.2      1 SUBUNIT   -0.0430
      7 H7            1.103400    0.000000   -2.977000 H        1 SUBUNIT    0.0840
      8 H8           -2.658500    2.172000   -2.977000 H        1 SUBUNIT    0.0848
      9 H9           -2.658500   -2.171900   -2.977000 H        1 SUBUNIT    0.0632
     10 H10          -0.150500   -2.172000   -2.977000 H        1 SUBUNIT    0.0639
     11 C11          -4.137600   -0.014300   -2.977000 C.2      1 SUBUNIT    0.2487
     12 N12          -4.808500   -0.619900   -4.013400 N.am     1 SUBUNIT   -0.2816
     13 O13          -4.752100    0.509800   -2.057800 O.2      1 SUBUNIT   -0.2715
     14 H14          -4.196200   -1.022200   -4.721500 H        1 SUBUNIT    0.1560
     15 C15          -6.122300   -0.635400   -4.015700 C.2      1 SUBUNIT    0.0291
     16 C16          -6.836900   -0.643800   -2.806500 C.2      1 SUBUNIT   -0.0552
     17 C17          -8.216500   -0.660100   -5.253500 C.2      1 SUBUNIT   -0.0749
     18 C18          -6.812100   -0.643500   -5.239200 C.2      1 SUBUNIT   -0.0444
     19 H19          -6.294900   -0.637400   -1.845400 H        1 SUBUNIT    0.0602
     20 H20          -8.758400   -0.666500   -6.214600 H        1 SUBUNIT    0.0583
     21 H21          -6.250700   -0.636900   -6.189100 H        1 SUBUNIT    0.0639
     22 C22         -10.283700   -0.684500   -4.087800 C.2      1 SUBUNIT   -0.0756
     23 C23         -10.998300   -0.692900   -2.878600 C.2      1 SUBUNIT   -0.0517
     24 C24         -10.308600   -0.684700   -1.655200 C.2      1 SUBUNIT    0.0138
     25 C25          -8.904200   -0.668200   -1.640900 C.2      1 SUBUNIT   -0.0624
     26 C26          -8.189600   -0.659800   -2.850000 C.3      1 SUBUNIT    0.0480
     27 C27          -8.879400   -0.667900   -4.073500 C.3      1 SUBUNIT    0.0452
     28 H28         -10.825600   -0.690800   -5.048900 H        1 SUBUNIT    0.0583
     29 H29         -12.101700   -0.705900   -2.889900 H        1 SUBUNIT    0.0631
     30 Br30        -11.289800   -0.696300    0.005000 Br       1 SUBUNIT   -0.0512
     31 H31          -8.362300   -0.661800   -0.679800 H        1 SUBUNIT    0.0594
@<TRIPOS>BOND
     1    1    2 2
     2    1    6 1
     3    1    7 1
     4    2    3 1
     5    3    4 2
     6    3    8 1
     7    4    5 1
     8    4   11 1
     9    5    6 2
    10    5    9 1
    11    6   10 1
    12   11   12 1
    13   11   13 2
    14   12   14 1
    15   12   15 1
    16   15   16 2
    17   15   18 1
    18   16   26 1
    19   16   19 1
    20   17   27 1
    21   17   18 2
    22   17   20 1
    23   18   21 1
    24   22   23 2
    25   22   27 1
    26   22   28 1
    27   23   24 1
    28   23   29 1
    29   24   25 2
    30   24   30 1
    31   25   26 1
    32   25   31 1
    33   26   27 1
@<SCITEGIC>ATOM_PROPERTY
Formal Charge
SciTegic.value.StringValue
1 0
2 0
3 0
4 0
5 0
6 0
7 0
8 0
9 0
10 0
11 0
12 0
13 0
14 0
15 0
16 0
17 0
18 0
19 0
20 0
21 0
22 0
23 0
24 0
25 0
26 0
27 0
28 0
29 0
30 0
31 0

@<SCITEGIC>ATOM_PROPERTY
pdb_tempFactor
SciTegic.value.DoubleValue
1 0.00
2 0.00
3 0.00
4 0.00
5 0.00
6 0.00
7 0.00
8 0.00
9 0.00
10 0.00
11 0.00
12 0.00
13 0.00
14 0.00
15 0.00
16 0.00
17 0.00
18 0.00
19 0.00
20 0.00
21 0.00
22 0.00
23 0.00
24 0.00
25 0.00
26 0.00
27 0.00
28 0.00
29 0.00
30 0.00
31 0.00

@<SCITEGIC>ATOM_PROPERTY
pdb_occupancy
SciTegic.value.DoubleValue
1 1.00
2 1.00
3 1.00
4 1.00
5 1.00
6 1.00
7 1.00
8 1.00
9 1.00
10 1.00
11 1.00
12 1.00
13 1.00
14 1.00
15 1.00
16 1.00
17 1.00
18 1.00
19 1.00
20 1.00
21 1.00
22 1.00
23 1.00
24 1.00
25 1.00
26 1.00
27 1.00
28 1.00
29 1.00
30 1.00
31 1.00

#	copyright 2023 drugdesign.org
#	Creation time:	2024-01-11T10:58:48Z

@<SCITEGIC>ROOT_PROPERTY
Ligand:MaximumNumberOfAtoms
SciTegic.value.IntegerValue
100

@<SCITEGIC>ROOT_PROPERTY
Ligand:HydrogenAtomsCountTowardsMaximum
SciTegic.value.BooleanValue
FALSE

@<TRIPOS>MOLECULE
2_bond_rotate_all.sd
   31    33     0 0 0
SMALL
USER_CHARGES


@<TRIPOS>ATOM
      1 C1            0.000000    0.000000   -2.977000 C.2      1 SUBUNIT    0.0268
      2 N2           -0.702300    1.216400   -2.977000 N.2      1 SUBUNIT   -0.2639
      3 C3           -2.106800    1.216400   -2.977000 C.2      1 SUBUNIT    0.0393
      4 C4           -2.809000    0.000000   -2.977000 C.2      1 SUBUNIT    0.0557
      5 C5           -2.106800   -1.216400   -2.977000 C.2      1 SUBUNIT   -0.0466
      6 C6           -0.702200   -1.216400   -2.977000 C.2      1 SUBUNIT   -0.0430
      7 H7            1.103400    0.000000   -2.977000 H        1 SUBUNIT    0.0840
      8 H8           -2.658500    2.172000   -2.977000 H        1 SUBUNIT    0.0848
      9 H9           -2.658500   -2.171900   -2.977000 H        1 SUBUNIT    0.0632
     10 H10          -0.150500   -2.172000   -2.977000 H        1 SUBUNIT    0.0639
     11 C11          -4.137600   -0.014300   -2.977000 C.2      1 SUBUNIT    0.2487
     12 N12          -4.803800   -1.057900   -3.575300 N.am     1 SUBUNIT   -0.2816
     13 O13          -4.756300    0.898300   -2.446300 O.2      1 SUBUNIT   -0.2715
     14 H14          -4.188300   -1.759500   -3.984200 H        1 SUBUNIT    0.1560
     15 C15          -6.117600   -1.074400   -3.576700 C.2      1 SUBUNIT    0.0291
     16 C16          -6.843800   -0.035100   -2.972200 C.2      1 SUBUNIT   -0.0552
     17 C17          -8.199900   -2.169300   -4.195900 C.2      1 SUBUNIT   -0.0749
     18 C18          -6.795600   -2.141500   -4.188500 C.2      1 SUBUNIT   -0.0444
     19 H19          -6.311000    0.803200   -2.491600 H        1 SUBUNIT    0.0602
     20 H20          -8.732600   -3.007500   -4.676500 H        1 SUBUNIT    0.0583
     21 H21          -6.225100   -2.957900   -4.663400 H        1 SUBUNIT    0.0639
     22 C22         -10.278400   -1.182500   -3.613300 C.2      1 SUBUNIT   -0.0756
     23 C23         -11.004600   -0.143300   -3.008800 C.2      1 SUBUNIT   -0.0517
     24 C24         -10.326500    0.923800   -2.397000 C.2      1 SUBUNIT    0.0138
     25 C25          -8.922300    0.951600   -2.389700 C.2      1 SUBUNIT   -0.0624
     26 C26          -8.196000   -0.087600   -2.994100 C.3      1 SUBUNIT    0.0480
     27 C27          -8.874100   -1.154700   -3.606000 C.3      1 SUBUNIT    0.0452
     28 H28         -10.811000   -2.020800   -4.094000 H        1 SUBUNIT    0.0583
     29 H29         -12.107800   -0.165200   -3.014700 H        1 SUBUNIT    0.0631
     30 Br30        -11.323700    2.350700   -1.567100 Br       1 SUBUNIT   -0.0512
     31 H31          -8.389600    1.789800   -1.909000 H        1 SUBUNIT    0.0594
@<TRIPOS>BOND
     1    1    2 2
     2    1    6 1
     3    1    7 1
     4    2    3 1
     5    3    4 2
     6    3    8 1
     7    4    5 1
     8    4   11 1
     9    5    6 2
    10    5    9 1
    11    6   10 1
    12   11   12 1
    13   11   13 2
    14   12   14 1
    15   12   15 1
    16   15   16 2
    17   15   18 1
    18   16   26 1
    19   16   19 1
    20   17   27 1
    21   17   18 2
    22   17   20 1
    23   18   21 1
    24   22   23 2
    25   22   27 1
    26   22   28 1
    27   23   24 1
    28   23   29 1
    29   24   25 2
    30   24   30 1
    31   25   26 1
    32   25   31 1
    33   26   27 1
@<SCITEGIC>ATOM_PROPERTY
Formal Charge
SciTegic.value.StringValue
1 0
2 0
3 0
4 0
5 0
6 0
7 0
8 0
9 0
10 0
11 0
12 0
13 0
14 0
15 0
16 0
17 0
18 0
19 0
20 0
21 0
22 0
23 0
24 0
25 0
26 0
27 0
28 0
29 0
30 0
31 0

@<SCITEGIC>ATOM_PROPERTY
pdb_tempFactor
SciTegic.value.DoubleValue
1 0.00
2 0.00
3 0.00
4 0.00
5 0.00
6 0.00
7 0.00
8 0.00
9 0.00
10 0.00
11 0.00
12 0.00
13 0.00
14 0.00
15 0.00
16 0.00
17 0.00
18 0.00
19 0.00
20 0.00
21 0.00
22 0.00
23 0.00
24 0.00
25 0.00
26 0.00
27 0.00
28 0.00
29 0.00
30 0.00
31 0.00

@<SCITEGIC>ATOM_PROPERTY
pdb_occupancy
SciTegic.value.DoubleValue
1 1.00
2 1.00
3 1.00
4 1.00
5 1.00
6 1.00
7 1.00
8 1.00
9 1.00
10 1.00
11 1.00
12 1.00
13 1.00
14 1.00
15 1.00
16 1.00
17 1.00
18 1.00
19 1.00
20 1.00
21 1.00
22 1.00
23 1.00
24 1.00
25 1.00
26 1.00
27 1.00
28 1.00
29 1.00
30 1.00
31 1.00

#	copyright 2023 drugdesign.org
#	Creation time:	2024-01-11T10:58:48Z

@<SCITEGIC>ROOT_PROPERTY
Ligand:MaximumNumberOfAtoms
SciTegic.value.IntegerValue
100

@<SCITEGIC>ROOT_PROPERTY
Ligand:HydrogenAtomsCountTowardsMaximum
SciTegic.value.BooleanValue
FALSE

@<TRIPOS>MOLECULE
2_bond_rotate_all.sd
   31    33     0 0 0
SMALL
USER_CHARGES


@<TRIPOS>ATOM
      1 C1            0.000000    0.000000   -2.977000 C.2      1 SUBUNIT    0.0268
      2 N2           -0.702300    1.216400   -2.977000 N.2      1 SUBUNIT   -0.2639
      3 C3           -2.106800    1.216400   -2.977000 C.2      1 SUBUNIT    0.0393
      4 C4           -2.809000    0.000000   -2.977000 C.2      1 SUBUNIT    0.0557
      5 C5           -2.106800   -1.216400   -2.977000 C.2      1 SUBUNIT   -0.0466
      6 C6           -0.702200   -1.216400   -2.977000 C.2      1 SUBUNIT   -0.0430
      7 H7            1.103400    0.000000   -2.977000 H        1 SUBUNIT    0.0840
      8 H8           -2.658500    2.172000   -2.977000 H        1 SUBUNIT    0.0848
      9 H9           -2.658500   -2.171900   -2.977000 H        1 SUBUNIT    0.0632
     10 H10          -0.150500   -2.172000   -2.977000 H        1 SUBUNIT    0.0639
     11 C11          -4.137600   -0.014300   -2.977000 C.2      1 SUBUNIT    0.2487
     12 N12          -4.803800   -1.057900   -3.575300 N.am     1 SUBUNIT   -0.2816
     13 O13          -4.756300    0.898300   -2.446300 O.2      1 SUBUNIT   -0.2715
     14 H14          -4.188300   -1.759500   -3.984200 H        1 SUBUNIT    0.1560
     15 C15          -6.117600   -1.074400   -3.576700 C.2      1 SUBUNIT    0.0291
     16 C16          -6.845200    0.127000   -3.576900 C.2      1 SUBUNIT   -0.0552
     17 C17          -8.198500   -2.334600   -3.579500 C.2      1 SUBUNIT   -0.0749
     18 C18          -6.794200   -2.305200   -3.578000 C.2      1 SUBUNIT   -0.0444
     19 H19          -6.313500    1.094000   -3.575800 H        1 SUBUNIT    0.0602
     20 H20          -8.730100   -3.301500   -3.580500 H        1 SUBUNIT    0.0583
     21 H21          -6.222600   -3.249100   -3.577900 H        1 SUBUNIT    0.0639
     22 C22         -10.278300   -1.191200   -3.581100 C.2      1 SUBUNIT   -0.0756
     23 C23         -11.005900    0.010200   -3.581200 C.2      1 SUBUNIT   -0.0517
     24 C24         -10.329300    1.241000   -3.579900 C.2      1 SUBUNIT    0.0138
     25 C25          -8.925100    1.270400   -3.578400 C.2      1 SUBUNIT   -0.0624
     26 C26          -8.197400    0.069000   -3.578300 C.3      1 SUBUNIT    0.0480
     27 C27          -8.874000   -1.161800   -3.579600 C.3      1 SUBUNIT    0.0452
     28 H28         -10.809800   -2.158100   -3.582100 H        1 SUBUNIT    0.0583
     29 H29         -12.109100   -0.013000   -3.582400 H        1 SUBUNIT    0.0631
     30 Br30        -11.328400    2.890600   -3.580100 Br       1 SUBUNIT   -0.0512
     31 H31          -8.393500    2.237300   -3.577400 H        1 SUBUNIT    0.0594
@<TRIPOS>BOND
     1    1    2 2
     2    1    6 1
     3    1    7 1
     4    2    3 1
     5    3    4 2
     6    3    8 1
     7    4    5 1
     8    4   11 1
     9    5    6 2
    10    5    9 1
    11    6   10 1
    12   11   12 1
    13   11   13 2
    14   12   14 1
    15   12   15 1
    16   15   16 2
    17   15   18 1
    18   16   26 1
    19   16   19 1
    20   17   27 1
    21   17   18 2
    22   17   20 1
    23   18   21 1
    24   22   23 2
    25   22   27 1
    26   22   28 1
    27   23   24 1
    28   23   29 1
    29   24   25 2
    30   24   30 1
    31   25   26 1
    32   25   31 1
    33   26   27 1
@<SCITEGIC>ATOM_PROPERTY
Formal Charge
SciTegic.value.StringValue
1 0
2 0
3 0
4 0
5 0
6 0
7 0
8 0
9 0
10 0
11 0
12 0
13 0
14 0
15 0
16 0
17 0
18 0
19 0
20 0
21 0
22 0
23 0
24 0
25 0
26 0
27 0
28 0
29 0
30 0
31 0

@<SCITEGIC>ATOM_PROPERTY
pdb_tempFactor
SciTegic.value.DoubleValue
1 0.00
2 0.00
3 0.00
4 0.00
5 0.00
6 0.00
7 0.00
8 0.00
9 0.00
10 0.00
11 0.00
12 0.00
13 0.00
14 0.00
15 0.00
16 0.00
17 0.00
18 0.00
19 0.00
20 0.00
21 0.00
22 0.00
23 0.00
24 0.00
25 0.00
26 0.00
27 0.00
28 0.00
29 0.00
30 0.00
31 0.00

@<SCITEGIC>ATOM_PROPERTY
pdb_occupancy
SciTegic.value.DoubleValue
1 1.00
2 1.00
3 1.00
4 1.00
5 1.00
6 1.00
7 1.00
8 1.00
9 1.00
10 1.00
11 1.00
12 1.00
13 1.00
14 1.00
15 1.00
16 1.00
17 1.00
18 1.00
19 1.00
20 1.00
21 1.00
22 1.00
23 1.00
24 1.00
25 1.00
26 1.00
27 1.00
28 1.00
29 1.00
30 1.00
31 1.00

#	copyright 2023 drugdesign.org
#	Creation time:	2024-01-11T10:58:48Z

@<SCITEGIC>ROOT_PROPERTY
Ligand:MaximumNumberOfAtoms
SciTegic.value.IntegerValue
100

@<SCITEGIC>ROOT_PROPERTY
Ligand:HydrogenAtomsCountTowardsMaximum
SciTegic.value.BooleanValue
FALSE

@<TRIPOS>MOLECULE
2_bond_rotate_all.sd
   31    33     0 0 0
SMALL
USER_CHARGES


@<TRIPOS>ATOM
      1 C1            0.000000    0.000000   -2.977000 C.2      1 SUBUNIT    0.0268
      2 N2           -0.702300    1.216400   -2.977000 N.2      1 SUBUNIT   -0.2639
      3 C3           -2.106800    1.216400   -2.977000 C.2      1 SUBUNIT    0.0393
      4 C4           -2.809000    0.000000   -2.977000 C.2      1 SUBUNIT    0.0557
      5 C5           -2.106800   -1.216400   -2.977000 C.2      1 SUBUNIT   -0.0466
      6 C6           -0.702200   -1.216400   -2.977000 C.2      1 SUBUNIT   -0.0430
      7 H7            1.103400    0.000000   -2.977000 H        1 SUBUNIT    0.0840
      8 H8           -2.658500    2.172000   -2.977000 H        1 SUBUNIT    0.0848
      9 H9           -2.658500   -2.171900   -2.977000 H        1 SUBUNIT    0.0632
     10 H10          -0.150500   -2.172000   -2.977000 H        1 SUBUNIT    0.0639
     11 C11          -4.137600   -0.014300   -2.977000 C.2      1 SUBUNIT    0.2487
     12 N12          -4.803800   -1.057900   -3.575300 N.am     1 SUBUNIT   -0.2816
     13 O13          -4.756300    0.898300   -2.446300 O.2      1 SUBUNIT   -0.2715
     14 H14          -4.188300   -1.759500   -3.984200 H        1 SUBUNIT    0.1560
     15 C15          -6.117600   -1.074400   -3.576700 C.2      1 SUBUNIT    0.0291
     16 C16          -6.842600   -0.035100   -4.182700 C.2      1 SUBUNIT   -0.0552
     17 C17          -8.201200   -2.169300   -2.961900 C.2      1 SUBUNIT   -0.0749
     18 C18          -6.796900   -2.141500   -2.966300 C.2      1 SUBUNIT   -0.0444
     19 H19          -6.308800    0.803200   -4.662200 H        1 SUBUNIT    0.0602
     20 H20          -8.734900   -3.007500   -2.482400 H        1 SUBUNIT    0.0583
     21 H21          -6.227400   -2.957900   -2.490200 H        1 SUBUNIT    0.0639
     22 C22         -10.278400   -1.182500   -3.548700 C.2      1 SUBUNIT   -0.0756
     23 C23         -11.003400   -0.143300   -4.154700 C.2      1 SUBUNIT   -0.0517
     24 C24         -10.324100    0.923800   -4.765100 C.2      1 SUBUNIT    0.0138
     25 C25          -8.919800    0.951600   -4.769500 C.2      1 SUBUNIT   -0.0624
     26 C26          -8.194800   -0.087600   -4.163600 C.3      1 SUBUNIT    0.0480
     27 C27          -8.874200   -1.154700   -3.553200 C.3      1 SUBUNIT    0.0452
     28 H28         -10.812100   -2.020800   -3.069200 H        1 SUBUNIT    0.0583
     29 H29         -12.106600   -0.165200   -4.151200 H        1 SUBUNIT    0.0631
     30 Br30        -11.319500    2.350700   -5.597100 Br       1 SUBUNIT   -0.0512
     31 H31          -8.386200    1.789900   -5.249000 H        1 SUBUNIT    0.0594
@<TRIPOS>BOND
     1    1    2 2
     2    1    6 1
     3    1    7 1
     4    2    3 1
     5    3    4 2
     6    3    8 1
     7    4    5 1
     8    4   11 1
     9    5    6 2
    10    5    9 1
    11    6   10 1
    12   11   12 1
    13   11   13 2
    14   12   14 1
    15   12   15 1
    16   15   16 2
    17   15   18 1
    18   16   26 1
    19   16   19 1
    20   17   27 1
    21   17   18 2
    22   17   20 1
    23   18   21 1
    24   22   23 2
    25   22   27 1
    26   22   28 1
    27   23   24 1
    28   23   29 1
    29   24   25 2
    30   24   30 1
    31   25   26 1
    32   25   31 1
    33   26   27 1
@<SCITEGIC>ATOM_PROPERTY
Formal Charge
SciTegic.value.StringValue
1 0
2 0
3 0
4 0
5 0
6 0
7 0
8 0
9 0
10 0
11 0
12 0
13 0
14 0
15 0
16 0
17 0
18 0
19 0
20 0
21 0
22 0
23 0
24 0
25 0
26 0
27 0
28 0
29 0
30 0
31 0

@<SCITEGIC>ATOM_PROPERTY
pdb_tempFactor
SciTegic.value.DoubleValue
1 0.00
2 0.00
3 0.00
4 0.00
5 0.00
6 0.00
7 0.00
8 0.00
9 0.00
10 0.00
11 0.00
12 0.00
13 0.00
14 0.00
15 0.00
16 0.00
17 0.00
18 0.00
19 0.00
20 0.00
21 0.00
22 0.00
23 0.00
24 0.00
25 0.00
26 0.00
27 0.00
28 0.00
29 0.00
30 0.00
31 0.00

@<SCITEGIC>ATOM_PROPERTY
pdb_occupancy
SciTegic.value.DoubleValue
1 1.00
2 1.00
3 1.00
4 1.00
5 1.00
6 1.00
7 1.00
8 1.00
9 1.00
10 1.00
11 1.00
12 1.00
13 1.00
14 1.00
15 1.00
16 1.00
17 1.00
18 1.00
19 1.00
20 1.00
21 1.00
22 1.00
23 1.00
24 1.00
25 1.00
26 1.00
27 1.00
28 1.00
29 1.00
30 1.00
31 1.00

#	copyright 2023 drugdesign.org
#	Creation time:	2024-01-11T10:58:48Z

@<SCITEGIC>ROOT_PROPERTY
Ligand:MaximumNumberOfAtoms
SciTegic.value.IntegerValue
100

@<SCITEGIC>ROOT_PROPERTY
Ligand:HydrogenAtomsCountTowardsMaximum
SciTegic.value.BooleanValue
FALSE

@<TRIPOS>MOLECULE
2_bond_rotate_all.sd
   31    33     0 0 0
SMALL
USER_CHARGES


@<TRIPOS>ATOM
      1 C1            0.000000    0.000000   -2.977000 C.2      1 SUBUNIT    0.0268
      2 N2           -0.702300    1.216400   -2.977000 N.2      1 SUBUNIT   -0.2639
      3 C3           -2.106800    1.216400   -2.977000 C.2      1 SUBUNIT    0.0393
      4 C4           -2.809000    0.000000   -2.977000 C.2      1 SUBUNIT    0.0557
      5 C5           -2.106800   -1.216400   -2.977000 C.2      1 SUBUNIT   -0.0466
      6 C6           -0.702200   -1.216400   -2.977000 C.2      1 SUBUNIT   -0.0430
      7 H7            1.103400    0.000000   -2.977000 H        1 SUBUNIT    0.0840
      8 H8           -2.658500    2.172000   -2.977000 H        1 SUBUNIT    0.0848
      9 H9           -2.658500   -2.171900   -2.977000 H        1 SUBUNIT    0.0632
     10 H10          -0.150500   -2.172000   -2.977000 H        1 SUBUNIT    0.0639
     11 C11          -4.137600   -0.014300   -2.977000 C.2      1 SUBUNIT    0.2487
     12 N12          -4.803800   -1.057900   -3.575300 N.am     1 SUBUNIT   -0.2816
     13 O13          -4.756300    0.898300   -2.446300 O.2      1 SUBUNIT   -0.2715
     14 H14          -4.188300   -1.759500   -3.984200 H        1 SUBUNIT    0.1560
     15 C15          -6.117600   -1.074400   -3.576700 C.2      1 SUBUNIT    0.0291
     16 C16          -6.836500   -0.478100   -4.625700 C.2      1 SUBUNIT   -0.0552
     17 C17          -8.207300   -1.717700   -2.510200 C.2      1 SUBUNIT   -0.0749
     18 C18          -6.803000   -1.694200   -2.518900 C.2      1 SUBUNIT   -0.0444
     19 H19          -6.298000    0.008800   -5.456700 H        1 SUBUNIT    0.0602
     20 H20          -8.745800   -2.204500   -1.679300 H        1 SUBUNIT    0.0583
     21 H21          -6.238200   -2.162600   -1.694800 H        1 SUBUNIT    0.0639
     22 C22         -10.278700   -1.158900   -3.525100 C.2      1 SUBUNIT   -0.0756
     23 C23         -10.997700   -0.562700   -4.574100 C.2      1 SUBUNIT   -0.0517
     24 C24         -10.312300    0.057100   -5.631900 C.2      1 SUBUNIT    0.0138
     25 C25          -8.908000    0.080600   -5.640600 C.2      1 SUBUNIT   -0.0624
     26 C26          -8.189000   -0.515600   -4.591600 C.3      1 SUBUNIT    0.0480
     27 C27          -8.874400   -1.135400   -3.533800 C.3      1 SUBUNIT    0.0452
     28 H28         -10.817200   -1.645800   -2.694100 H        1 SUBUNIT    0.0583
     29 H29         -12.101000   -0.581200   -4.567200 H        1 SUBUNIT    0.0631
     30 Br30        -11.299400    0.875700   -7.072200 Br       1 SUBUNIT   -0.0512
     31 H31          -8.369500    0.567500   -6.471500 H        1 SUBUNIT    0.0594
@<TRIPOS>BOND
     1    1    2 2
     2    1    6 1
     3    1    7 1
     4    2    3 1
     5    3    4 2
     6    3    8 1
     7    4    5 1
     8    4   11 1
     9    5    6 2
    10    5    9 1
    11    6   10 1
    12   11   12 1
    13   11   13 2
    14   12   14 1
    15   12   15 1
    16   15   16 2
    17   15   18 1
    18   16   26 1
    19   16   19 1
    20   17   27 1
    21   17   18 2
    22   17   20 1
    23   18   21 1
    24   22   23 2
    25   22   27 1
    26   22   28 1
    27   23   24 1
    28   23   29 1
    29   24   25 2
    30   24   30 1
    31   25   26 1
    32   25   31 1
    33   26   27 1
@<SCITEGIC>ATOM_PROPERTY
Formal Charge
SciTegic.value.StringValue
1 0
2 0
3 0
4 0
5 0
6 0
7 0
8 0
9 0
10 0
11 0
12 0
13 0
14 0
15 0
16 0
17 0
18 0
19 0
20 0
21 0
22 0
23 0
24 0
25 0
26 0
27 0
28 0
29 0
30 0
31 0

@<SCITEGIC>ATOM_PROPERTY
pdb_tempFactor
SciTegic.value.DoubleValue
1 0.00
2 0.00
3 0.00
4 0.00
5 0.00
6 0.00
7 0.00
8 0.00
9 0.00
10 0.00
11 0.00
12 0.00
13 0.00
14 0.00
15 0.00
16 0.00
17 0.00
18 0.00
19 0.00
20 0.00
21 0.00
22 0.00
23 0.00
24 0.00
25 0.00
26 0.00
27 0.00
28 0.00
29 0.00
30 0.00
31 0.00

@<SCITEGIC>ATOM_PROPERTY
pdb_occupancy
SciTegic.value.DoubleValue
1 1.00
2 1.00
3 1.00
4 1.00
5 1.00
6 1.00
7 1.00
8 1.00
9 1.00
10 1.00
11 1.00
12 1.00
13 1.00
14 1.00
15 1.00
16 1.00
17 1.00
18 1.00
19 1.00
20 1.00
21 1.00
22 1.00
23 1.00
24 1.00
25 1.00
26 1.00
27 1.00
28 1.00
29 1.00
30 1.00
31 1.00

#	copyright 2023 drugdesign.org
#	Creation time:	2024-01-11T10:58:48Z

@<SCITEGIC>ROOT_PROPERTY
Ligand:MaximumNumberOfAtoms
SciTegic.value.IntegerValue
100

@<SCITEGIC>ROOT_PROPERTY
Ligand:HydrogenAtomsCountTowardsMaximum
SciTegic.value.BooleanValue
FALSE

@<TRIPOS>MOLECULE
2_bond_rotate_all.sd
   31    33     0 0 0
SMALL
USER_CHARGES


@<TRIPOS>ATOM
      1 C1            0.000000    0.000000   -2.977000 C.2      1 SUBUNIT    0.0268
      2 N2           -0.702300    1.216400   -2.977000 N.2      1 SUBUNIT   -0.2639
      3 C3           -2.106800    1.216400   -2.977000 C.2      1 SUBUNIT    0.0393
      4 C4           -2.809000    0.000000   -2.977000 C.2      1 SUBUNIT    0.0557
      5 C5           -2.106800   -1.216400   -2.977000 C.2      1 SUBUNIT   -0.0466
      6 C6           -0.702200   -1.216400   -2.977000 C.2      1 SUBUNIT   -0.0430
      7 H7            1.103400    0.000000   -2.977000 H        1 SUBUNIT    0.0840
      8 H8           -2.658500    2.172000   -2.977000 H        1 SUBUNIT    0.0848
      9 H9           -2.658500   -2.171900   -2.977000 H        1 SUBUNIT    0.0632
     10 H10          -0.150500   -2.172000   -2.977000 H        1 SUBUNIT    0.0639
     11 C11          -4.137600   -0.014300   -2.977000 C.2      1 SUBUNIT    0.2487
     12 N12          -4.803800   -1.057900   -3.575300 N.am     1 SUBUNIT   -0.2816
     13 O13          -4.756300    0.898300   -2.446300 O.2      1 SUBUNIT   -0.2715
     14 H14          -4.188300   -1.759500   -3.984200 H        1 SUBUNIT    0.1560
     15 C15          -6.117600   -1.074400   -3.576700 C.2      1 SUBUNIT    0.0291
     16 C16          -6.828800   -1.083300   -4.787900 C.2      1 SUBUNIT   -0.0552
     17 C17          -8.215200   -1.100700   -2.344900 C.2      1 SUBUNIT   -0.0749
     18 C18          -6.810800   -1.083100   -2.355200 C.2      1 SUBUNIT   -0.0444
     19 H19          -6.284000   -1.076500   -5.747500 H        1 SUBUNIT    0.0602
     20 H20          -8.759900   -1.107600   -1.385300 H        1 SUBUNIT    0.0583
     21 H21          -6.252100   -1.076100   -1.403700 H        1 SUBUNIT    0.0639
     22 C22         -10.279100   -1.126600   -3.516500 C.2      1 SUBUNIT   -0.0756
     23 C23         -10.990300   -1.135600   -4.727700 C.2      1 SUBUNIT   -0.0517
     24 C24         -10.297100   -1.126800   -5.949100 C.2      1 SUBUNIT    0.0138
     25 C25          -8.892700   -1.109200   -5.959400 C.2      1 SUBUNIT   -0.0624
     26 C26          -8.181500   -1.100300   -4.748300 C.3      1 SUBUNIT    0.0480
     27 C27          -8.874800   -1.109000   -3.526700 C.3      1 SUBUNIT    0.0452
     28 H28         -10.823800   -1.133500   -2.556800 H        1 SUBUNIT    0.0583
     29 H29         -12.093700   -1.149400   -4.719500 H        1 SUBUNIT    0.0631
     30 Br30        -11.273600   -1.139100   -7.612100 Br       1 SUBUNIT   -0.0512
     31 H31          -8.348100   -1.102400   -6.919000 H        1 SUBUNIT    0.0594
@<TRIPOS>BOND
     1    1    2 2
     2    1    6 1
     3    1    7 1
     4    2    3 1
     5    3    4 2
     6    3    8 1
     7    4    5 1
     8    4   11 1
     9    5    6 2
    10    5    9 1
    11    6   10 1
    12   11   12 1
    13   11   13 2
    14   12   14 1
    15   12   15 1
    16   15   16 2
    17   15   18 1
    18   16   26 1
    19   16   19 1
    20   17   27 1
    21   17   18 2
    22   17   20 1
    23   18   21 1
    24   22   23 2
    25   22   27 1
    26   22   28 1
    27   23   24 1
    28   23   29 1
    29   24   25 2
    30   24   30 1
    31   25   26 1
    32   25   31 1
    33   26   27 1
@<SCITEGIC>ATOM_PROPERTY
Formal Charge
SciTegic.value.StringValue
1 0
2 0
3 0
4 0
5 0
6 0
7 0
8 0
9 0
10 0
11 0
12 0
13 0
14 0
15 0
16 0
17 0
18 0
19 0
20 0
21 0
22 0
23 0
24 0
25 0
26 0
27 0
28 0
29 0
30 0
31 0

@<SCITEGIC>ATOM_PROPERTY
pdb_tempFactor
SciTegic.value.DoubleValue
1 0.00
2 0.00
3 0.00
4 0.00
5 0.00
6 0.00
7 0.00
8 0.00
9 0.00
10 0.00
11 0.00
12 0.00
13 0.00
14 0.00
15 0.00
16 0.00
17 0.00
18 0.00
19 0.00
20 0.00
21 0.00
22 0.00
23 0.00
24 0.00
25 0.00
26 0.00
27 0.00
28 0.00
29 0.00
30 0.00
31 0.00

@<SCITEGIC>ATOM_PROPERTY
pdb_occupancy
SciTegic.value.DoubleValue
1 1.00
2 1.00
3 1.00
4 1.00
5 1.00
6 1.00
7 1.00
8 1.00
9 1.00
10 1.00
11 1.00
12 1.00
13 1.00
14 1.00
15 1.00
16 1.00
17 1.00
18 1.00
19 1.00
20 1.00
21 1.00
22 1.00
23 1.00
24 1.00
25 1.00
26 1.00
27 1.00
28 1.00
29 1.00
30 1.00
31 1.00

#	copyright 2023 drugdesign.org
#	Creation time:	2024-01-11T10:58:48Z

@<SCITEGIC>ROOT_PROPERTY
Ligand:MaximumNumberOfAtoms
SciTegic.value.IntegerValue
100

@<SCITEGIC>ROOT_PROPERTY
Ligand:HydrogenAtomsCountTowardsMaximum
SciTegic.value.BooleanValue
FALSE

@<TRIPOS>MOLECULE
2_bond_rotate_all.sd
   31    33     0 0 0
SMALL
USER_CHARGES


@<TRIPOS>ATOM
      1 C1            0.000000    0.000000   -2.977000 C.2      1 SUBUNIT    0.0268
      2 N2           -0.702300    1.216400   -2.977000 N.2      1 SUBUNIT   -0.2639
      3 C3           -2.106800    1.216400   -2.977000 C.2      1 SUBUNIT    0.0393
      4 C4           -2.809000    0.000000   -2.977000 C.2      1 SUBUNIT    0.0557
      5 C5           -2.106800   -1.216400   -2.977000 C.2      1 SUBUNIT   -0.0466
      6 C6           -0.702200   -1.216400   -2.977000 C.2      1 SUBUNIT   -0.0430
      7 H7            1.103400    0.000000   -2.977000 H        1 SUBUNIT    0.0840
      8 H8           -2.658500    2.172000   -2.977000 H        1 SUBUNIT    0.0848
      9 H9           -2.658500   -2.171900   -2.977000 H        1 SUBUNIT    0.0632
     10 H10          -0.150500   -2.172000   -2.977000 H        1 SUBUNIT    0.0639
     11 C11          -4.137600   -0.014300   -2.977000 C.2      1 SUBUNIT    0.2487
     12 N12          -4.803800   -1.057900   -3.575300 N.am     1 SUBUNIT   -0.2816
     13 O13          -4.756300    0.898300   -2.446300 O.2      1 SUBUNIT   -0.2715
     14 H14          -4.188300   -1.759500   -3.984200 H        1 SUBUNIT    0.1560
     15 C15          -6.117600   -1.074400   -3.576700 C.2      1 SUBUNIT    0.0291
     16 C16          -6.821300   -1.688500   -4.625700 C.2      1 SUBUNIT   -0.0552
     17 C17          -8.222800   -0.483700   -2.510200 C.2      1 SUBUNIT   -0.0749
     18 C18          -6.818300   -0.472000   -2.518900 C.2      1 SUBUNIT   -0.0444
     19 H19          -6.270700   -2.161700   -5.456700 H        1 SUBUNIT    0.0602
     20 H20          -8.773300   -0.010600   -1.679300 H        1 SUBUNIT    0.0583
     21 H21          -6.265500    0.010400   -1.694800 H        1 SUBUNIT    0.0639
     22 C22         -10.279500   -1.094300   -3.525100 C.2      1 SUBUNIT   -0.0756
     23 C23         -10.983300   -1.708500   -4.574100 C.2      1 SUBUNIT   -0.0517
     24 C24         -10.282600   -2.310800   -5.631900 C.2      1 SUBUNIT    0.0138
     25 C25          -8.878100   -2.299000   -5.640600 C.2      1 SUBUNIT   -0.0624
     26 C26          -8.174300   -1.685000   -4.591600 C.3      1 SUBUNIT    0.0480
     27 C27          -8.875100   -1.082600   -3.533800 C.3      1 SUBUNIT    0.0452
     28 H28         -10.830000   -0.621100   -2.694100 H        1 SUBUNIT    0.0583
     29 H29         -12.086700   -1.717600   -4.567200 H        1 SUBUNIT    0.0631
     30 Br30        -11.248800   -3.154000   -7.072200 Br       1 SUBUNIT   -0.0512
     31 H31          -8.327600   -2.772300   -6.471500 H        1 SUBUNIT    0.0594
@<TRIPOS>BOND
     1    1    2 2
     2    1    6 1
     3    1    7 1
     4    2    3 1
     5    3    4 2
     6    3    8 1
     7    4    5 1
     8    4   11 1
     9    5    6 2
    10    5    9 1
    11    6   10 1
    12   11   12 1
    13   11   13 2
    14   12   14 1
    15   12   15 1
    16   15   16 2
    17   15   18 1
    18   16   26 1
    19   16   19 1
    20   17   27 1
    21   17   18 2
    22   17   20 1
    23   18   21 1
    24   22   23 2
    25   22   27 1
    26   22   28 1
    27   23   24 1
    28   23   29 1
    29   24   25 2
    30   24   30 1
    31   25   26 1
    32   25   31 1
    33   26   27 1
@<SCITEGIC>ATOM_PROPERTY
Formal Charge
SciTegic.value.StringValue
1 0
2 0
3 0
4 0
5 0
6 0
7 0
8 0
9 0
10 0
11 0
12 0
13 0
14 0
15 0
16 0
17 0
18 0
19 0
20 0
21 0
22 0
23 0
24 0
25 0
26 0
27 0
28 0
29 0
30 0
31 0

@<SCITEGIC>ATOM_PROPERTY
pdb_tempFactor
SciTegic.value.DoubleValue
1 0.00
2 0.00
3 0.00
4 0.00
5 0.00
6 0.00
7 0.00
8 0.00
9 0.00
10 0.00
11 0.00
12 0.00
13 0.00
14 0.00
15 0.00
16 0.00
17 0.00
18 0.00
19 0.00
20 0.00
21 0.00
22 0.00
23 0.00
24 0.00
25 0.00
26 0.00
27 0.00
28 0.00
29 0.00
30 0.00
31 0.00

@<SCITEGIC>ATOM_PROPERTY
pdb_occupancy
SciTegic.value.DoubleValue
1 1.00
2 1.00
3 1.00
4 1.00
5 1.00
6 1.00
7 1.00
8 1.00
9 1.00
10 1.00
11 1.00
12 1.00
13 1.00
14 1.00
15 1.00
16 1.00
17 1.00
18 1.00
19 1.00
20 1.00
21 1.00
22 1.00
23 1.00
24 1.00
25 1.00
26 1.00
27 1.00
28 1.00
29 1.00
30 1.00
31 1.00

#	copyright 2023 drugdesign.org
#	Creation time:	2024-01-11T10:58:48Z

@<SCITEGIC>ROOT_PROPERTY
Ligand:MaximumNumberOfAtoms
SciTegic.value.IntegerValue
100

@<SCITEGIC>ROOT_PROPERTY
Ligand:HydrogenAtomsCountTowardsMaximum
SciTegic.value.BooleanValue
FALSE

@<TRIPOS>MOLECULE
2_bond_rotate_all.sd
   31    33     0 0 0
SMALL
USER_CHARGES


@<TRIPOS>ATOM
      1 C1            0.000000    0.000000   -2.977000 C.2      1 SUBUNIT    0.0268
      2 N2           -0.702300    1.216400   -2.977000 N.2      1 SUBUNIT   -0.2639
      3 C3           -2.106800    1.216400   -2.977000 C.2      1 SUBUNIT    0.0393
      4 C4           -2.809000    0.000000   -2.977000 C.2      1 SUBUNIT    0.0557
      5 C5           -2.106800   -1.216400   -2.977000 C.2      1 SUBUNIT   -0.0466
      6 C6           -0.702200   -1.216400   -2.977000 C.2      1 SUBUNIT   -0.0430
      7 H7            1.103400    0.000000   -2.977000 H        1 SUBUNIT    0.0840
      8 H8           -2.658500    2.172000   -2.977000 H        1 SUBUNIT    0.0848
      9 H9           -2.658500   -2.171900   -2.977000 H        1 SUBUNIT    0.0632
     10 H10          -0.150500   -2.172000   -2.977000 H        1 SUBUNIT    0.0639
     11 C11          -4.137600   -0.014300   -2.977000 C.2      1 SUBUNIT    0.2487
     12 N12          -4.803800   -1.057900   -3.575300 N.am     1 SUBUNIT   -0.2816
     13 O13          -4.756300    0.898300   -2.446300 O.2      1 SUBUNIT   -0.2715
     14 H14          -4.188300   -1.759500   -3.984200 H        1 SUBUNIT    0.1560
     15 C15          -6.117600   -1.074400   -3.576700 C.2      1 SUBUNIT    0.0291
     16 C16          -6.816200   -2.131500   -4.182700 C.2      1 SUBUNIT   -0.0552
     17 C17          -8.228000   -0.032100   -2.961900 C.2      1 SUBUNIT   -0.0749
     18 C18          -6.823400   -0.024700   -2.966300 C.2      1 SUBUNIT   -0.0444
     19 H19          -6.261600   -2.956200   -4.662200 H        1 SUBUNIT    0.0602
     20 H20          -8.782600    0.792500   -2.482400 H        1 SUBUNIT    0.0583
     21 H21          -6.274600    0.805800   -2.490300 H        1 SUBUNIT    0.0639
     22 C22         -10.279800   -1.070700   -3.548700 C.2      1 SUBUNIT   -0.0756
     23 C23         -10.978500   -2.127900   -4.154700 C.2      1 SUBUNIT   -0.0517
     24 C24         -10.272600   -3.177500   -4.765100 C.2      1 SUBUNIT    0.0138
     25 C25          -8.868100   -3.170100   -4.769500 C.2      1 SUBUNIT   -0.0624
     26 C26          -8.169400   -2.113000   -4.163600 C.3      1 SUBUNIT    0.0480
     27 C27          -8.875300   -1.063200   -3.553100 C.3      1 SUBUNIT    0.0452
     28 H28         -10.834400   -0.246100   -3.069200 H        1 SUBUNIT    0.0583
     29 H29         -12.081900   -2.133600   -4.151200 H        1 SUBUNIT    0.0631
     30 Br30        -11.231900   -4.629000   -5.597100 Br       1 SUBUNIT   -0.0512
     31 H31          -8.313500   -3.994700   -5.249000 H        1 SUBUNIT    0.0594
@<TRIPOS>BOND
     1    1    2 2
     2    1    6 1
     3    1    7 1
     4    2    3 1
     5    3    4 2
     6    3    8 1
     7    4    5 1
     8    4   11 1
     9    5    6 2
    10    5    9 1
    11    6   10 1
    12   11   12 1
    13   11   13 2
    14   12   14 1
    15   12   15 1
    16   15   16 2
    17   15   18 1
    18   16   26 1
    19   16   19 1
    20   17   27 1
    21   17   18 2
    22   17   20 1
    23   18   21 1
    24   22   23 2
    25   22   27 1
    26   22   28 1
    27   23   24 1
    28   23   29 1
    29   24   25 2
    30   24   30 1
    31   25   26 1
    32   25   31 1
    33   26   27 1
@<SCITEGIC>ATOM_PROPERTY
Formal Charge
SciTegic.value.StringValue
1 0
2 0
3 0
4 0
5 0
6 0
7 0
8 0
9 0
10 0
11 0
12 0
13 0
14 0
15 0
16 0
17 0
18 0
19 0
20 0
21 0
22 0
23 0
24 0
25 0
26 0
27 0
28 0
29 0
30 0
31 0

@<SCITEGIC>ATOM_PROPERTY
pdb_tempFactor
SciTegic.value.DoubleValue
1 0.00
2 0.00
3 0.00
4 0.00
5 0.00
6 0.00
7 0.00
8 0.00
9 0.00
10 0.00
11 0.00
12 0.00
13 0.00
14 0.00
15 0.00
16 0.00
17 0.00
18 0.00
19 0.00
20 0.00
21 0.00
22 0.00
23 0.00
24 0.00
25 0.00
26 0.00
27 0.00
28 0.00
29 0.00
30 0.00
31 0.00

@<SCITEGIC>ATOM_PROPERTY
pdb_occupancy
SciTegic.value.DoubleValue
1 1.00
2 1.00
3 1.00
4 1.00
5 1.00
6 1.00
7 1.00
8 1.00
9 1.00
10 1.00
11 1.00
12 1.00
13 1.00
14 1.00
15 1.00
16 1.00
17 1.00
18 1.00
19 1.00
20 1.00
21 1.00
22 1.00
23 1.00
24 1.00
25 1.00
26 1.00
27 1.00
28 1.00
29 1.00
30 1.00
31 1.00

#	copyright 2023 drugdesign.org
#	Creation time:	2024-01-11T10:58:48Z

@<SCITEGIC>ROOT_PROPERTY
Ligand:MaximumNumberOfAtoms
SciTegic.value.IntegerValue
100

@<SCITEGIC>ROOT_PROPERTY
Ligand:HydrogenAtomsCountTowardsMaximum
SciTegic.value.BooleanValue
FALSE

@<TRIPOS>MOLECULE
2_bond_rotate_all.sd
   31    33     0 0 0
SMALL
USER_CHARGES


@<TRIPOS>ATOM
      1 C1            0.000000    0.000000   -2.977000 C.2      1 SUBUNIT    0.0268
      2 N2           -0.702300    1.216400   -2.977000 N.2      1 SUBUNIT   -0.2639
      3 C3           -2.106800    1.216400   -2.977000 C.2      1 SUBUNIT    0.0393
      4 C4           -2.809000    0.000000   -2.977000 C.2      1 SUBUNIT    0.0557
      5 C5           -2.106800   -1.216400   -2.977000 C.2      1 SUBUNIT   -0.0466
      6 C6           -0.702200   -1.216400   -2.977000 C.2      1 SUBUNIT   -0.0430
      7 H7            1.103400    0.000000   -2.977000 H        1 SUBUNIT    0.0840
      8 H8           -2.658500    2.172000   -2.977000 H        1 SUBUNIT    0.0848
      9 H9           -2.658500   -2.171900   -2.977000 H        1 SUBUNIT    0.0632
     10 H10          -0.150500   -2.172000   -2.977000 H        1 SUBUNIT    0.0639
     11 C11          -4.137600   -0.014300   -2.977000 C.2      1 SUBUNIT    0.2487
     12 N12          -4.803800   -1.057900   -3.575300 N.am     1 SUBUNIT   -0.2816
     13 O13          -4.756300    0.898300   -2.446300 O.2      1 SUBUNIT   -0.2715
     14 H14          -4.188300   -1.759500   -3.984200 H        1 SUBUNIT    0.1560
     15 C15          -6.117600   -1.074400   -3.576700 C.2      1 SUBUNIT    0.0291
     16 C16          -6.814800   -2.293700   -3.578000 C.2      1 SUBUNIT   -0.0552
     17 C17          -8.229500    0.133200   -3.578300 C.2      1 SUBUNIT   -0.0749
     18 C18          -6.824900    0.139100   -3.576800 C.2      1 SUBUNIT   -0.0444
     19 H19          -6.259100   -3.247000   -3.577900 H        1 SUBUNIT    0.0602
     20 H20          -8.785100    1.086400   -3.578400 H        1 SUBUNIT    0.0583
     21 H21          -6.277200    1.097000   -3.575800 H        1 SUBUNIT    0.0639
     22 C22         -10.279900   -1.062100   -3.581000 C.2      1 SUBUNIT   -0.0756
     23 C23         -10.977100   -2.281400   -3.582300 C.2      1 SUBUNIT   -0.0517
     24 C24         -10.269800   -3.494800   -3.582200 C.2      1 SUBUNIT    0.0138
     25 C25          -8.865300   -3.488900   -3.580700 C.2      1 SUBUNIT   -0.0624
     26 C26          -8.168000   -2.269600   -3.579400 C.3      1 SUBUNIT    0.0480
     27 C27          -8.875400   -1.056200   -3.579500 C.3      1 SUBUNIT    0.0452
     28 H28         -10.835600   -0.108800   -3.581100 H        1 SUBUNIT    0.0583
     29 H29         -12.080600   -2.285900   -3.583500 H        1 SUBUNIT    0.0631
     30 Br30        -11.227200   -5.168900   -3.584000 Br       1 SUBUNIT   -0.0512
     31 H31          -8.309700   -4.442200   -3.580600 H        1 SUBUNIT    0.0594
@<TRIPOS>BOND
     1    1    2 2
     2    1    6 1
     3    1    7 1
     4    2    3 1
     5    3    4 2
     6    3    8 1
     7    4    5 1
     8    4   11 1
     9    5    6 2
    10    5    9 1
    11    6   10 1
    12   11   12 1
    13   11   13 2
    14   12   14 1
    15   12   15 1
    16   15   16 2
    17   15   18 1
    18   16   26 1
    19   16   19 1
    20   17   27 1
    21   17   18 2
    22   17   20 1
    23   18   21 1
    24   22   23 2
    25   22   27 1
    26   22   28 1
    27   23   24 1
    28   23   29 1
    29   24   25 2
    30   24   30 1
    31   25   26 1
    32   25   31 1
    33   26   27 1
@<SCITEGIC>ATOM_PROPERTY
Formal Charge
SciTegic.value.StringValue
1 0
2 0
3 0
4 0
5 0
6 0
7 0
8 0
9 0
10 0
11 0
12 0
13 0
14 0
15 0
16 0
17 0
18 0
19 0
20 0
21 0
22 0
23 0
24 0
25 0
26 0
27 0
28 0
29 0
30 0
31 0

@<SCITEGIC>ATOM_PROPERTY
pdb_tempFactor
SciTegic.value.DoubleValue
1 0.00
2 0.00
3 0.00
4 0.00
5 0.00
6 0.00
7 0.00
8 0.00
9 0.00
10 0.00
11 0.00
12 0.00
13 0.00
14 0.00
15 0.00
16 0.00
17 0.00
18 0.00
19 0.00
20 0.00
21 0.00
22 0.00
23 0.00
24 0.00
25 0.00
26 0.00
27 0.00
28 0.00
29 0.00
30 0.00
31 0.00

@<SCITEGIC>ATOM_PROPERTY
pdb_occupancy
SciTegic.value.DoubleValue
1 1.00
2 1.00
3 1.00
4 1.00
5 1.00
6 1.00
7 1.00
8 1.00
9 1.00
10 1.00
11 1.00
12 1.00
13 1.00
14 1.00
15 1.00
16 1.00
17 1.00
18 1.00
19 1.00
20 1.00
21 1.00
22 1.00
23 1.00
24 1.00
25 1.00
26 1.00
27 1.00
28 1.00
29 1.00
30 1.00
31 1.00

#	copyright 2023 drugdesign.org
#	Creation time:	2024-01-11T10:58:48Z

@<SCITEGIC>ROOT_PROPERTY
Ligand:MaximumNumberOfAtoms
SciTegic.value.IntegerValue
100

@<SCITEGIC>ROOT_PROPERTY
Ligand:HydrogenAtomsCountTowardsMaximum
SciTegic.value.BooleanValue
FALSE

@<TRIPOS>MOLECULE
2_bond_rotate_all.sd
   31    33     0 0 0
SMALL
USER_CHARGES


@<TRIPOS>ATOM
      1 C1            0.000000    0.000000   -2.977000 C.2      1 SUBUNIT    0.0268
      2 N2           -0.702300    1.216400   -2.977000 N.2      1 SUBUNIT   -0.2639
      3 C3           -2.106800    1.216400   -2.977000 C.2      1 SUBUNIT    0.0393
      4 C4           -2.809000    0.000000   -2.977000 C.2      1 SUBUNIT    0.0557
      5 C5           -2.106800   -1.216400   -2.977000 C.2      1 SUBUNIT   -0.0466
      6 C6           -0.702200   -1.216400   -2.977000 C.2      1 SUBUNIT   -0.0430
      7 H7            1.103400    0.000000   -2.977000 H        1 SUBUNIT    0.0840
      8 H8           -2.658500    2.172000   -2.977000 H        1 SUBUNIT    0.0848
      9 H9           -2.658500   -2.171900   -2.977000 H        1 SUBUNIT    0.0632
     10 H10          -0.150500   -2.172000   -2.977000 H        1 SUBUNIT    0.0639
     11 C11          -4.137600   -0.014300   -2.977000 C.2      1 SUBUNIT    0.2487
     12 N12          -4.803800   -1.057900   -3.575300 N.am     1 SUBUNIT   -0.2816
     13 O13          -4.756300    0.898300   -2.446300 O.2      1 SUBUNIT   -0.2715
     14 H14          -4.188300   -1.759500   -3.984200 H        1 SUBUNIT    0.1560
     15 C15          -6.117600   -1.074400   -3.576700 C.2      1 SUBUNIT    0.0291
     16 C16          -6.817500   -2.131500   -2.972200 C.2      1 SUBUNIT   -0.0552
     17 C17          -8.226700   -0.032100   -4.195900 C.2      1 SUBUNIT   -0.0749
     18 C18          -6.822200   -0.024600   -4.188500 C.2      1 SUBUNIT   -0.0444
     19 H19          -6.263800   -2.956200   -2.491500 H        1 SUBUNIT    0.0602
     20 H20          -8.780300    0.792500   -4.676500 H        1 SUBUNIT    0.0583
     21 H21          -6.272400    0.805900   -4.663400 H        1 SUBUNIT    0.0639
     22 C22         -10.279700   -1.070700   -3.613300 C.2      1 SUBUNIT   -0.0756
     23 C23         -10.979600   -2.127900   -3.008800 C.2      1 SUBUNIT   -0.0517
     24 C24         -10.275000   -3.177500   -2.397000 C.2      1 SUBUNIT    0.0138
     25 C25          -8.870600   -3.170100   -2.389700 C.2      1 SUBUNIT   -0.0624
     26 C26          -8.170600   -2.113000   -2.994100 C.3      1 SUBUNIT    0.0480
     27 C27          -8.875300   -1.063200   -3.606000 C.3      1 SUBUNIT    0.0452
     28 H28         -10.833300   -0.246000   -4.094000 H        1 SUBUNIT    0.0583
     29 H29         -12.083100   -2.133600   -3.014600 H        1 SUBUNIT    0.0631
     30 Br30        -11.236000   -4.629000   -1.567000 Br       1 SUBUNIT   -0.0512
     31 H31          -8.317000   -3.994700   -1.909000 H        1 SUBUNIT    0.0594
@<TRIPOS>BOND
     1    1    2 2
     2    1    6 1
     3    1    7 1
     4    2    3 1
     5    3    4 2
     6    3    8 1
     7    4    5 1
     8    4   11 1
     9    5    6 2
    10    5    9 1
    11    6   10 1
    12   11   12 1
    13   11   13 2
    14   12   14 1
    15   12   15 1
    16   15   16 2
    17   15   18 1
    18   16   26 1
    19   16   19 1
    20   17   27 1
    21   17   18 2
    22   17   20 1
    23   18   21 1
    24   22   23 2
    25   22   27 1
    26   22   28 1
    27   23   24 1
    28   23   29 1
    29   24   25 2
    30   24   30 1
    31   25   26 1
    32   25   31 1
    33   26   27 1
@<SCITEGIC>ATOM_PROPERTY
Formal Charge
SciTegic.value.StringValue
1 0
2 0
3 0
4 0
5 0
6 0
7 0
8 0
9 0
10 0
11 0
12 0
13 0
14 0
15 0
16 0
17 0
18 0
19 0
20 0
21 0
22 0
23 0
24 0
25 0
26 0
27 0
28 0
29 0
30 0
31 0

@<SCITEGIC>ATOM_PROPERTY
pdb_tempFactor
SciTegic.value.DoubleValue
1 0.00
2 0.00
3 0.00
4 0.00
5 0.00
6 0.00
7 0.00
8 0.00
9 0.00
10 0.00
11 0.00
12 0.00
13 0.00
14 0.00
15 0.00
16 0.00
17 0.00
18 0.00
19 0.00
20 0.00
21 0.00
22 0.00
23 0.00
24 0.00
25 0.00
26 0.00
27 0.00
28 0.00
29 0.00
30 0.00
31 0.00

@<SCITEGIC>ATOM_PROPERTY
pdb_occupancy
SciTegic.value.DoubleValue
1 1.00
2 1.00
3 1.00
4 1.00
5 1.00
6 1.00
7 1.00
8 1.00
9 1.00
10 1.00
11 1.00
12 1.00
13 1.00
14 1.00
15 1.00
16 1.00
17 1.00
18 1.00
19 1.00
20 1.00
21 1.00
22 1.00
23 1.00
24 1.00
25 1.00
26 1.00
27 1.00
28 1.00
29 1.00
30 1.00
31 1.00

#	copyright 2023 drugdesign.org
#	Creation time:	2024-01-11T10:58:48Z

@<SCITEGIC>ROOT_PROPERTY
Ligand:MaximumNumberOfAtoms
SciTegic.value.IntegerValue
100

@<SCITEGIC>ROOT_PROPERTY
Ligand:HydrogenAtomsCountTowardsMaximum
SciTegic.value.BooleanValue
FALSE

@<TRIPOS>MOLECULE
2_bond_rotate_all.sd
   31    33     0 0 0
SMALL
USER_CHARGES


@<TRIPOS>ATOM
      1 C1            0.000000    0.000000   -2.977000 C.2      1 SUBUNIT    0.0268
      2 N2           -0.702300    1.216400   -2.977000 N.2      1 SUBUNIT   -0.2639
      3 C3           -2.106800    1.216400   -2.977000 C.2      1 SUBUNIT    0.0393
      4 C4           -2.809000    0.000000   -2.977000 C.2      1 SUBUNIT    0.0557
      5 C5           -2.106800   -1.216400   -2.977000 C.2      1 SUBUNIT   -0.0466
      6 C6           -0.702200   -1.216400   -2.977000 C.2      1 SUBUNIT   -0.0430
      7 H7            1.103400    0.000000   -2.977000 H        1 SUBUNIT    0.0840
      8 H8           -2.658500    2.172000   -2.977000 H        1 SUBUNIT    0.0848
      9 H9           -2.658500   -2.171900   -2.977000 H        1 SUBUNIT    0.0632
     10 H10          -0.150500   -2.172000   -2.977000 H        1 SUBUNIT    0.0639
     11 C11          -4.137600   -0.014300   -2.977000 C.2      1 SUBUNIT    0.2487
     12 N12          -4.803800   -1.057900   -3.575300 N.am     1 SUBUNIT   -0.2816
     13 O13          -4.756300    0.898300   -2.446300 O.2      1 SUBUNIT   -0.2715
     14 H14          -4.188300   -1.759500   -3.984200 H        1 SUBUNIT    0.1560
     15 C15          -6.117600   -1.074400   -3.576700 C.2      1 SUBUNIT    0.0291
     16 C16          -6.823500   -1.688500   -2.529100 C.2      1 SUBUNIT   -0.0552
     17 C17          -8.220600   -0.483700   -4.647600 C.2      1 SUBUNIT   -0.0749
     18 C18          -6.816100   -0.472000   -4.635900 C.2      1 SUBUNIT   -0.0444
     19 H19          -6.274600   -2.161800   -1.697000 H        1 SUBUNIT    0.0602
     20 H20          -8.769400   -0.010500   -5.479600 H        1 SUBUNIT    0.0583
     21 H21          -6.261600    0.010500   -5.458900 H        1 SUBUNIT    0.0639
     22 C22         -10.279400   -1.094300   -3.636900 C.2      1 SUBUNIT   -0.0756
     23 C23         -10.985300   -1.708500   -2.589400 C.2      1 SUBUNIT   -0.0517
     24 C24         -10.286800   -2.310800   -1.530200 C.2      1 SUBUNIT    0.0138
     25 C25          -8.882400   -2.299100   -1.518600 C.2      1 SUBUNIT   -0.0624
     26 C26          -8.176400   -1.685000   -2.566100 C.3      1 SUBUNIT    0.0480
     27 C27          -8.875000   -1.082600   -3.625300 C.3      1 SUBUNIT    0.0452
     28 H28         -10.828200   -0.621100   -4.469000 H        1 SUBUNIT    0.0583
     29 H29         -12.088700   -1.717600   -2.598600 H        1 SUBUNIT    0.0631
     30 Br30        -11.256100   -3.154100   -0.091900 Br       1 SUBUNIT   -0.0512
     31 H31          -8.333600   -2.772300   -0.686500 H        1 SUBUNIT    0.0594
@<TRIPOS>BOND
     1    1    2 2
     2    1    6 1
     3    1    7 1
     4    2    3 1
     5    3    4 2
     6    3    8 1
     7    4    5 1
     8    4   11 1
     9    5    6 2
    10    5    9 1
    11    6   10 1
    12   11   12 1
    13   11   13 2
    14   12   14 1
    15   12   15 1
    16   15   16 2
    17   15   18 1
    18   16   26 1
    19   16   19 1
    20   17   27 1
    21   17   18 2
    22   17   20 1
    23   18   21 1
    24   22   23 2
    25   22   27 1
    26   22   28 1
    27   23   24 1
    28   23   29 1
    29   24   25 2
    30   24   30 1
    31   25   26 1
    32   25   31 1
    33   26   27 1
@<SCITEGIC>ATOM_PROPERTY
Formal Charge
SciTegic.value.StringValue
1 0
2 0
3 0
4 0
5 0
6 0
7 0
8 0
9 0
10 0
11 0
12 0
13 0
14 0
15 0
16 0
17 0
18 0
19 0
20 0
21 0
22 0
23 0
24 0
25 0
26 0
27 0
28 0
29 0
30 0
31 0

@<SCITEGIC>ATOM_PROPERTY
pdb_tempFactor
SciTegic.value.DoubleValue
1 0.00
2 0.00
3 0.00
4 0.00
5 0.00
6 0.00
7 0.00
8 0.00
9 0.00
10 0.00
11 0.00
12 0.00
13 0.00
14 0.00
15 0.00
16 0.00
17 0.00
18 0.00
19 0.00
20 0.00
21 0.00
22 0.00
23 0.00
24 0.00
25 0.00
26 0.00
27 0.00
28 0.00
29 0.00
30 0.00
31 0.00

@<SCITEGIC>ATOM_PROPERTY
pdb_occupancy
SciTegic.value.DoubleValue
1 1.00
2 1.00
3 1.00
4 1.00
5 1.00
6 1.00
7 1.00
8 1.00
9 1.00
10 1.00
11 1.00
12 1.00
13 1.00
14 1.00
15 1.00
16 1.00
17 1.00
18 1.00
19 1.00
20 1.00
21 1.00
22 1.00
23 1.00
24 1.00
25 1.00
26 1.00
27 1.00
28 1.00
29 1.00
30 1.00
31 1.00

#	copyright 2023 drugdesign.org
#	Creation time:	2024-01-11T10:58:48Z

@<SCITEGIC>ROOT_PROPERTY
Ligand:MaximumNumberOfAtoms
SciTegic.value.IntegerValue
100

@<SCITEGIC>ROOT_PROPERTY
Ligand:HydrogenAtomsCountTowardsMaximum
SciTegic.value.BooleanValue
FALSE

@<TRIPOS>MOLECULE
2_bond_rotate_all.sd
   31    33     0 0 0
SMALL
USER_CHARGES


@<TRIPOS>ATOM
      1 C1            0.000000    0.000000   -2.977000 C.2      1 SUBUNIT    0.0268
      2 N2           -0.702300    1.216400   -2.977000 N.2      1 SUBUNIT   -0.2639
      3 C3           -2.106800    1.216400   -2.977000 C.2      1 SUBUNIT    0.0393
      4 C4           -2.809000    0.000000   -2.977000 C.2      1 SUBUNIT    0.0557
      5 C5           -2.106800   -1.216400   -2.977000 C.2      1 SUBUNIT   -0.0466
      6 C6           -0.702200   -1.216400   -2.977000 C.2      1 SUBUNIT   -0.0430
      7 H7            1.103400    0.000000   -2.977000 H        1 SUBUNIT    0.0840
      8 H8           -2.658500    2.172000   -2.977000 H        1 SUBUNIT    0.0848
      9 H9           -2.658500   -2.171900   -2.977000 H        1 SUBUNIT    0.0632
     10 H10          -0.150500   -2.172000   -2.977000 H        1 SUBUNIT    0.0639
     11 C11          -4.137600   -0.014300   -2.977000 C.2      1 SUBUNIT    0.2487
     12 N12          -4.803800   -1.057900   -3.575300 N.am     1 SUBUNIT   -0.2816
     13 O13          -4.756300    0.898300   -2.446300 O.2      1 SUBUNIT   -0.2715
     14 H14          -4.188300   -1.759500   -3.984200 H        1 SUBUNIT    0.1560
     15 C15          -6.117600   -1.074400   -3.576700 C.2      1 SUBUNIT    0.0291
     16 C16          -6.831300   -1.083300   -2.367000 C.2      1 SUBUNIT   -0.0552
     17 C17          -8.212700   -1.100700   -4.812900 C.2      1 SUBUNIT   -0.0749
     18 C18          -6.808300   -1.083000   -4.799700 C.2      1 SUBUNIT   -0.0444
     19 H19          -6.288600   -1.076500   -1.406200 H        1 SUBUNIT    0.0602
     20 H20          -8.755300   -1.107500   -5.773600 H        1 SUBUNIT    0.0583
     21 H21          -6.247600   -1.076000   -5.750000 H        1 SUBUNIT    0.0639
     22 C22         -10.279000   -1.126600   -3.645600 C.2      1 SUBUNIT   -0.0756
     23 C23         -10.992700   -1.135600   -2.435900 C.2      1 SUBUNIT   -0.0517
     24 C24         -10.302000   -1.126900   -1.213000 C.2      1 SUBUNIT    0.0138
     25 C25          -8.897700   -1.109300   -1.199800 C.2      1 SUBUNIT   -0.0624
     26 C26          -8.183900   -1.100300   -2.409400 C.3      1 SUBUNIT    0.0480
     27 C27          -8.874700   -1.109000   -3.632400 C.3      1 SUBUNIT    0.0452
     28 H28         -10.821600   -1.133400   -4.606300 H        1 SUBUNIT    0.0583
     29 H29         -12.096000   -1.149400   -2.446400 H        1 SUBUNIT    0.0631
     30 Br30        -11.281900   -1.139200    0.448000 Br       1 SUBUNIT   -0.0512
     31 H31          -8.355100   -1.102500   -0.239000 H        1 SUBUNIT    0.0594
@<TRIPOS>BOND
     1    1    2 2
     2    1    6 1
     3    1    7 1
     4    2    3 1
     5    3    4 2
     6    3    8 1
     7    4    5 1
     8    4   11 1
     9    5    6 2
    10    5    9 1
    11    6   10 1
    12   11   12 1
    13   11   13 2
    14   12   14 1
    15   12   15 1
    16   15   16 2
    17   15   18 1
    18   16   26 1
    19   16   19 1
    20   17   27 1
    21   17   18 2
    22   17   20 1
    23   18   21 1
    24   22   23 2
    25   22   27 1
    26   22   28 1
    27   23   24 1
    28   23   29 1
    29   24   25 2
    30   24   30 1
    31   25   26 1
    32   25   31 1
    33   26   27 1
@<SCITEGIC>ATOM_PROPERTY
Formal Charge
SciTegic.value.StringValue
1 0
2 0
3 0
4 0
5 0
6 0
7 0
8 0
9 0
10 0
11 0
12 0
13 0
14 0
15 0
16 0
17 0
18 0
19 0
20 0
21 0
22 0
23 0
24 0
25 0
26 0
27 0
28 0
29 0
30 0
31 0

@<SCITEGIC>ATOM_PROPERTY
pdb_tempFactor
SciTegic.value.DoubleValue
1 0.00
2 0.00
3 0.00
4 0.00
5 0.00
6 0.00
7 0.00
8 0.00
9 0.00
10 0.00
11 0.00
12 0.00
13 0.00
14 0.00
15 0.00
16 0.00
17 0.00
18 0.00
19 0.00
20 0.00
21 0.00
22 0.00
23 0.00
24 0.00
25 0.00
26 0.00
27 0.00
28 0.00
29 0.00
30 0.00
31 0.00

@<SCITEGIC>ATOM_PROPERTY
pdb_occupancy
SciTegic.value.DoubleValue
1 1.00
2 1.00
3 1.00
4 1.00
5 1.00
6 1.00
7 1.00
8 1.00
9 1.00
10 1.00
11 1.00
12 1.00
13 1.00
14 1.00
15 1.00
16 1.00
17 1.00
18 1.00
19 1.00
20 1.00
21 1.00
22 1.00
23 1.00
24 1.00
25 1.00
26 1.00
27 1.00
28 1.00
29 1.00
30 1.00
31 1.00

#	copyright 2023 drugdesign.org
#	Creation time:	2024-01-11T10:58:48Z

@<SCITEGIC>ROOT_PROPERTY
Ligand:MaximumNumberOfAtoms
SciTegic.value.IntegerValue
100

@<SCITEGIC>ROOT_PROPERTY
Ligand:HydrogenAtomsCountTowardsMaximum
SciTegic.value.BooleanValue
FALSE

@<TRIPOS>MOLECULE
2_bond_rotate_all.sd
   31    33     0 0 0
SMALL
USER_CHARGES


@<TRIPOS>ATOM
      1 C1            0.000000    0.000000   -2.977000 C.2      1 SUBUNIT    0.0268
      2 N2           -0.702300    1.216400   -2.977000 N.2      1 SUBUNIT   -0.2639
      3 C3           -2.106800    1.216400   -2.977000 C.2      1 SUBUNIT    0.0393
      4 C4           -2.809000    0.000000   -2.977000 C.2      1 SUBUNIT    0.0557
      5 C5           -2.106800   -1.216400   -2.977000 C.2      1 SUBUNIT   -0.0466
      6 C6           -0.702200   -1.216400   -2.977000 C.2      1 SUBUNIT   -0.0430
      7 H7            1.103400    0.000000   -2.977000 H        1 SUBUNIT    0.0840
      8 H8           -2.658500    2.172000   -2.977000 H        1 SUBUNIT    0.0848
      9 H9           -2.658500   -2.171900   -2.977000 H        1 SUBUNIT    0.0632
     10 H10          -0.150500   -2.172000   -2.977000 H        1 SUBUNIT    0.0639
     11 C11          -4.137600   -0.014300   -2.977000 C.2      1 SUBUNIT    0.2487
     12 N12          -4.803800   -1.057900   -3.575300 N.am     1 SUBUNIT   -0.2816
     13 O13          -4.756300    0.898300   -2.446300 O.2      1 SUBUNIT   -0.2715
     14 H14          -4.188300   -1.759500   -3.984200 H        1 SUBUNIT    0.1560
     15 C15          -6.117600   -1.074400   -3.576700 C.2      1 SUBUNIT    0.0291
     16 C16          -6.838700   -0.478200   -2.529100 C.2      1 SUBUNIT   -0.0552
     17 C17          -8.205100   -1.717600   -4.647600 C.2      1 SUBUNIT   -0.0749
     18 C18          -6.800800   -1.694100   -4.635900 C.2      1 SUBUNIT   -0.0444
     19 H19          -6.301900    0.008700   -1.697000 H        1 SUBUNIT    0.0602
     20 H20          -8.741800   -2.204500   -5.479600 H        1 SUBUNIT    0.0583
     21 H21          -6.234300   -2.162500   -5.458900 H        1 SUBUNIT    0.0639
     22 C22         -10.278600   -1.158900   -3.637000 C.2      1 SUBUNIT   -0.0756
     23 C23         -10.999700   -0.562700   -2.589400 C.2      1 SUBUNIT   -0.0517
     24 C24         -10.316500    0.057000   -1.530200 C.2      1 SUBUNIT    0.0138
     25 C25          -8.912300    0.080500   -1.518600 C.2      1 SUBUNIT   -0.0624
     26 C26          -8.191100   -0.515600   -2.566100 C.3      1 SUBUNIT    0.0480
     27 C27          -8.874300   -1.135400   -3.625300 C.3      1 SUBUNIT    0.0452
     28 H28         -10.815300   -1.645800   -4.469100 H        1 SUBUNIT    0.0583
     29 H29         -12.103000   -0.581200   -2.598600 H        1 SUBUNIT    0.0631
     30 Br30        -11.306700    0.875700   -0.092000 Br       1 SUBUNIT   -0.0512
     31 H31          -8.375600    0.567400   -0.686500 H        1 SUBUNIT    0.0594
@<TRIPOS>BOND
     1    1    2 2
     2    1    6 1
     3    1    7 1
     4    2    3 1
     5    3    4 2
     6    3    8 1
     7    4    5 1
     8    4   11 1
     9    5    6 2
    10    5    9 1
    11    6   10 1
    12   11   12 1
    13   11   13 2
    14   12   14 1
    15   12   15 1
    16   15   16 2
    17   15   18 1
    18   16   26 1
    19   16   19 1
    20   17   27 1
    21   17   18 2
    22   17   20 1
    23   18   21 1
    24   22   23 2
    25   22   27 1
    26   22   28 1
    27   23   24 1
    28   23   29 1
    29   24   25 2
    30   24   30 1
    31   25   26 1
    32   25   31 1
    33   26   27 1
@<SCITEGIC>ATOM_PROPERTY
Formal Charge
SciTegic.value.StringValue
1 0
2 0
3 0
4 0
5 0
6 0
7 0
8 0
9 0
10 0
11 0
12 0
13 0
14 0
15 0
16 0
17 0
18 0
19 0
20 0
21 0
22 0
23 0
24 0
25 0
26 0
27 0
28 0
29 0
30 0
31 0

@<SCITEGIC>ATOM_PROPERTY
pdb_tempFactor
SciTegic.value.DoubleValue
1 0.00
2 0.00
3 0.00
4 0.00
5 0.00
6 0.00
7 0.00
8 0.00
9 0.00
10 0.00
11 0.00
12 0.00
13 0.00
14 0.00
15 0.00
16 0.00
17 0.00
18 0.00
19 0.00
20 0.00
21 0.00
22 0.00
23 0.00
24 0.00
25 0.00
26 0.00
27 0.00
28 0.00
29 0.00
30 0.00
31 0.00

@<SCITEGIC>ATOM_PROPERTY
pdb_occupancy
SciTegic.value.DoubleValue
1 1.00
2 1.00
3 1.00
4 1.00
5 1.00
6 1.00
7 1.00
8 1.00
9 1.00
10 1.00
11 1.00
12 1.00
13 1.00
14 1.00
15 1.00
16 1.00
17 1.00
18 1.00
19 1.00
20 1.00
21 1.00
22 1.00
23 1.00
24 1.00
25 1.00
26 1.00
27 1.00
28 1.00
29 1.00
30 1.00
31 1.00

#	copyright 2023 drugdesign.org
#	Creation time:	2024-01-11T10:58:48Z

@<SCITEGIC>ROOT_PROPERTY
Ligand:MaximumNumberOfAtoms
SciTegic.value.IntegerValue
100

@<SCITEGIC>ROOT_PROPERTY
Ligand:HydrogenAtomsCountTowardsMaximum
SciTegic.value.BooleanValue
FALSE

@<TRIPOS>MOLECULE
2_bond_rotate_all.sd
   31    33     0 0 0
SMALL
USER_CHARGES


@<TRIPOS>ATOM
      1 C1            0.000000    0.000000   -2.977000 C.2      1 SUBUNIT    0.0268
      2 N2           -0.702300    1.216400   -2.977000 N.2      1 SUBUNIT   -0.2639
      3 C3           -2.106800    1.216400   -2.977000 C.2      1 SUBUNIT    0.0393
      4 C4           -2.809000    0.000000   -2.977000 C.2      1 SUBUNIT    0.0557
      5 C5           -2.106800   -1.216400   -2.977000 C.2      1 SUBUNIT   -0.0466
      6 C6           -0.702200   -1.216400   -2.977000 C.2      1 SUBUNIT   -0.0430
      7 H7            1.103400    0.000000   -2.977000 H        1 SUBUNIT    0.0840
      8 H8           -2.658500    2.172000   -2.977000 H        1 SUBUNIT    0.0848
      9 H9           -2.658500   -2.171900   -2.977000 H        1 SUBUNIT    0.0632
     10 H10          -0.150500   -2.172000   -2.977000 H        1 SUBUNIT    0.0639
     11 C11          -4.137600   -0.014300   -2.977000 C.2      1 SUBUNIT    0.2487
     12 N12          -4.802000   -1.218200   -2.977000 N.am     1 SUBUNIT   -0.2816
     13 O13          -4.757800    1.040500   -2.977000 O.2      1 SUBUNIT   -0.2715
     14 H14          -4.185400   -2.029400   -2.977000 H        1 SUBUNIT    0.1560
     15 C15          -6.115900   -1.235100   -2.977000 C.2      1 SUBUNIT    0.0291
     16 C16          -6.843800   -0.033800   -2.977000 C.2      1 SUBUNIT   -0.0552
     17 C17          -8.196400   -2.495900   -2.977000 C.2      1 SUBUNIT   -0.0749
     18 C18          -6.792100   -2.466100   -2.977000 C.2      1 SUBUNIT   -0.0444
     19 H19          -6.312400    0.933300   -2.977000 H        1 SUBUNIT    0.0602
     20 H20          -8.727700   -3.462900   -2.977000 H        1 SUBUNIT    0.0583
     21 H21          -6.220300   -3.409800   -2.977000 H        1 SUBUNIT    0.0639
     22 C22         -10.276500   -1.353000   -2.977000 C.2      1 SUBUNIT   -0.0756
     23 C23         -11.004500   -0.151800   -2.977000 C.2      1 SUBUNIT   -0.0517
     24 C24         -10.328200    1.079200   -2.977000 C.2      1 SUBUNIT    0.0138
     25 C25          -8.924000    1.108900   -2.977000 C.2      1 SUBUNIT   -0.0624
     26 C26          -8.196000   -0.092200   -2.977000 C.3      1 SUBUNIT    0.0480
     27 C27          -8.872300   -1.323300   -2.977000 C.3      1 SUBUNIT    0.0452
     28 H28         -10.807800   -2.320100   -2.977000 H        1 SUBUNIT    0.0583
     29 H29         -12.107700   -0.175300   -2.977000 H        1 SUBUNIT    0.0631
     30 Br30        -11.327700    2.728400   -2.977000 Br       1 SUBUNIT   -0.0512
     31 H31          -8.392700    2.076000   -2.977000 H        1 SUBUNIT    0.0594
@<TRIPOS>BOND
     1    1    2 2
     2    1    6 1
     3    1    7 1
     4    2    3 1
     5    3    4 2
     6    3    8 1
     7    4    5 1
     8    4   11 1
     9    5    6 2
    10    5    9 1
    11    6   10 1
    12   11   12 1
    13   11   13 2
    14   12   14 1
    15   12   15 1
    16   15   16 2
    17   15   18 1
    18   16   26 1
    19   16   19 1
    20   17   27 1
    21   17   18 2
    22   17   20 1
    23   18   21 1
    24   22   23 2
    25   22   27 1
    26   22   28 1
    27   23   24 1
    28   23   29 1
    29   24   25 2
    30   24   30 1
    31   25   26 1
    32   25   31 1
    33   26   27 1
@<SCITEGIC>ATOM_PROPERTY
Formal Charge
SciTegic.value.StringValue
1 0
2 0
3 0
4 0
5 0
6 0
7 0
8 0
9 0
10 0
11 0
12 0
13 0
14 0
15 0
16 0
17 0
18 0
19 0
20 0
21 0
22 0
23 0
24 0
25 0
26 0
27 0
28 0
29 0
30 0
31 0

@<SCITEGIC>ATOM_PROPERTY
pdb_tempFactor
SciTegic.value.DoubleValue
1 0.00
2 0.00
3 0.00
4 0.00
5 0.00
6 0.00
7 0.00
8 0.00
9 0.00
10 0.00
11 0.00
12 0.00
13 0.00
14 0.00
15 0.00
16 0.00
17 0.00
18 0.00
19 0.00
20 0.00
21 0.00
22 0.00
23 0.00
24 0.00
25 0.00
26 0.00
27 0.00
28 0.00
29 0.00
30 0.00
31 0.00

@<SCITEGIC>ATOM_PROPERTY
pdb_occupancy
SciTegic.value.DoubleValue
1 1.00
2 1.00
3 1.00
4 1.00
5 1.00
6 1.00
7 1.00
8 1.00
9 1.00
10 1.00
11 1.00
12 1.00
13 1.00
14 1.00
15 1.00
16 1.00
17 1.00
18 1.00
19 1.00
20 1.00
21 1.00
22 1.00
23 1.00
24 1.00
25 1.00
26 1.00
27 1.00
28 1.00
29 1.00
30 1.00
31 1.00

#	copyright 2023 drugdesign.org
#	Creation time:	2024-01-11T10:58:48Z

@<SCITEGIC>ROOT_PROPERTY
Ligand:MaximumNumberOfAtoms
SciTegic.value.IntegerValue
100

@<SCITEGIC>ROOT_PROPERTY
Ligand:HydrogenAtomsCountTowardsMaximum
SciTegic.value.BooleanValue
FALSE

@<TRIPOS>MOLECULE
2_bond_rotate_all.sd
   31    33     0 0 0
SMALL
USER_CHARGES


@<TRIPOS>ATOM
      1 C1            0.000000    0.000000   -2.977000 C.2      1 SUBUNIT    0.0268
      2 N2           -0.702300    1.216400   -2.977000 N.2      1 SUBUNIT   -0.2639
      3 C3           -2.106800    1.216400   -2.977000 C.2      1 SUBUNIT    0.0393
      4 C4           -2.809000    0.000000   -2.977000 C.2      1 SUBUNIT    0.0557
      5 C5           -2.106800   -1.216400   -2.977000 C.2      1 SUBUNIT   -0.0466
      6 C6           -0.702200   -1.216400   -2.977000 C.2      1 SUBUNIT   -0.0430
      7 H7            1.103400    0.000000   -2.977000 H        1 SUBUNIT    0.0840
      8 H8           -2.658500    2.172000   -2.977000 H        1 SUBUNIT    0.0848
      9 H9           -2.658500   -2.171900   -2.977000 H        1 SUBUNIT    0.0632
     10 H10          -0.150500   -2.172000   -2.977000 H        1 SUBUNIT    0.0639
     11 C11          -4.137600   -0.014300   -2.977000 C.2      1 SUBUNIT    0.2487
     12 N12          -4.802000   -1.218200   -2.977000 N.am     1 SUBUNIT   -0.2816
     13 O13          -4.757800    1.040500   -2.977000 O.2      1 SUBUNIT   -0.2715
     14 H14          -4.185400   -2.029400   -2.977000 H        1 SUBUNIT    0.1560
     15 C15          -6.115900   -1.235100   -2.977000 C.2      1 SUBUNIT    0.0291
     16 C16          -6.841700   -0.196000   -3.582200 C.2      1 SUBUNIT   -0.0552
     17 C17          -8.198500   -2.330600   -2.360000 C.2      1 SUBUNIT   -0.0749
     18 C18          -6.794200   -2.302400   -2.365900 C.2      1 SUBUNIT   -0.0444
     19 H19          -6.308700    0.642500   -4.062300 H        1 SUBUNIT    0.0602
     20 H20          -8.731500   -3.168900   -1.879900 H        1 SUBUNIT    0.0583
     21 H21          -6.224000   -3.118600   -1.890400 H        1 SUBUNIT    0.0639
     22 C22         -10.276600   -1.344400   -2.944700 C.2      1 SUBUNIT   -0.0756
     23 C23         -11.002500   -0.305300   -3.549900 C.2      1 SUBUNIT   -0.0517
     24 C24         -10.324100    0.761900   -4.161000 C.2      1 SUBUNIT    0.0138
     25 C25          -8.919900    0.790100   -4.166900 C.2      1 SUBUNIT   -0.0624
     26 C26          -8.194000   -0.248900   -3.561700 C.3      1 SUBUNIT    0.0480
     27 C27          -8.872400   -1.316200   -2.950600 C.3      1 SUBUNIT    0.0452
     28 H28         -10.809600   -2.182800   -2.464600 H        1 SUBUNIT    0.0583
     29 H29         -12.105700   -0.327600   -3.545300 H        1 SUBUNIT    0.0631
     30 Br30        -11.320800    2.188600   -4.992000 Br       1 SUBUNIT   -0.0512
     31 H31          -8.387000    1.628500   -4.647000 H        1 SUBUNIT    0.0594
@<TRIPOS>BOND
     1    1    2 2
     2    1    6 1
     3    1    7 1
     4    2    3 1
     5    3    4 2
     6    3    8 1
     7    4    5 1
     8    4   11 1
     9    5    6 2
    10    5    9 1
    11    6   10 1
    12   11   12 1
    13   11   13 2
    14   12   14 1
    15   12   15 1
    16   15   16 2
    17   15   18 1
    18   16   26 1
    19   16   19 1
    20   17   27 1
    21   17   18 2
    22   17   20 1
    23   18   21 1
    24   22   23 2
    25   22   27 1
    26   22   28 1
    27   23   24 1
    28   23   29 1
    29   24   25 2
    30   24   30 1
    31   25   26 1
    32   25   31 1
    33   26   27 1
@<SCITEGIC>ATOM_PROPERTY
Formal Charge
SciTegic.value.StringValue
1 0
2 0
3 0
4 0
5 0
6 0
7 0
8 0
9 0
10 0
11 0
12 0
13 0
14 0
15 0
16 0
17 0
18 0
19 0
20 0
21 0
22 0
23 0
24 0
25 0
26 0
27 0
28 0
29 0
30 0
31 0

@<SCITEGIC>ATOM_PROPERTY
pdb_tempFactor
SciTegic.value.DoubleValue
1 0.00
2 0.00
3 0.00
4 0.00
5 0.00
6 0.00
7 0.00
8 0.00
9 0.00
10 0.00
11 0.00
12 0.00
13 0.00
14 0.00
15 0.00
16 0.00
17 0.00
18 0.00
19 0.00
20 0.00
21 0.00
22 0.00
23 0.00
24 0.00
25 0.00
26 0.00
27 0.00
28 0.00
29 0.00
30 0.00
31 0.00

@<SCITEGIC>ATOM_PROPERTY
pdb_occupancy
SciTegic.value.DoubleValue
1 1.00
2 1.00
3 1.00
4 1.00
5 1.00
6 1.00
7 1.00
8 1.00
9 1.00
10 1.00
11 1.00
12 1.00
13 1.00
14 1.00
15 1.00
16 1.00
17 1.00
18 1.00
19 1.00
20 1.00
21 1.00
22 1.00
23 1.00
24 1.00
25 1.00
26 1.00
27 1.00
28 1.00
29 1.00
30 1.00
31 1.00

#	copyright 2023 drugdesign.org
#	Creation time:	2024-01-11T10:58:48Z

@<SCITEGIC>ROOT_PROPERTY
Ligand:MaximumNumberOfAtoms
SciTegic.value.IntegerValue
100

@<SCITEGIC>ROOT_PROPERTY
Ligand:HydrogenAtomsCountTowardsMaximum
SciTegic.value.BooleanValue
FALSE

@<TRIPOS>MOLECULE
2_bond_rotate_all.sd
   31    33     0 0 0
SMALL
USER_CHARGES


@<TRIPOS>ATOM
      1 C1            0.000000    0.000000   -2.977000 C.2      1 SUBUNIT    0.0268
      2 N2           -0.702300    1.216400   -2.977000 N.2      1 SUBUNIT   -0.2639
      3 C3           -2.106800    1.216400   -2.977000 C.2      1 SUBUNIT    0.0393
      4 C4           -2.809000    0.000000   -2.977000 C.2      1 SUBUNIT    0.0557
      5 C5           -2.106800   -1.216400   -2.977000 C.2      1 SUBUNIT   -0.0466
      6 C6           -0.702200   -1.216400   -2.977000 C.2      1 SUBUNIT   -0.0430
      7 H7            1.103400    0.000000   -2.977000 H        1 SUBUNIT    0.0840
      8 H8           -2.658500    2.172000   -2.977000 H        1 SUBUNIT    0.0848
      9 H9           -2.658500   -2.171900   -2.977000 H        1 SUBUNIT    0.0632
     10 H10          -0.150500   -2.172000   -2.977000 H        1 SUBUNIT    0.0639
     11 C11          -4.137600   -0.014300   -2.977000 C.2      1 SUBUNIT    0.2487
     12 N12          -4.802000   -1.218200   -2.977000 N.am     1 SUBUNIT   -0.2816
     13 O13          -4.757800    1.040500   -2.977000 O.2      1 SUBUNIT   -0.2715
     14 H14          -4.185400   -2.029400   -2.977000 H        1 SUBUNIT    0.1560
     15 C15          -6.115900   -1.235100   -2.977000 C.2      1 SUBUNIT    0.0291
     16 C16          -6.836100   -0.639000   -4.025300 C.2      1 SUBUNIT   -0.0552
     17 C17          -8.204300   -1.878900   -1.908300 C.2      1 SUBUNIT   -0.0749
     18 C18          -6.800000   -1.855000   -1.918500 C.2      1 SUBUNIT   -0.0444
     19 H19          -6.298500   -0.152000   -4.856800 H        1 SUBUNIT    0.0602
     20 H20          -8.741800   -2.365900   -1.076800 H        1 SUBUNIT    0.0583
     21 H21          -6.234200   -2.323300   -1.095000 H        1 SUBUNIT    0.0639
     22 C22         -10.276900   -1.320700   -2.921100 C.2      1 SUBUNIT   -0.0756
     23 C23         -10.997100   -0.724700   -3.969400 C.2      1 SUBUNIT   -0.0517
     24 C24         -10.313000   -0.104800   -5.027800 C.2      1 SUBUNIT    0.0138
     25 C25          -8.908700   -0.080900   -5.038000 C.2      1 SUBUNIT   -0.0624
     26 C26          -8.188500   -0.676900   -3.989800 C.3      1 SUBUNIT    0.0480
     27 C27          -8.872600   -1.296900   -2.931200 C.3      1 SUBUNIT    0.0452
     28 H28         -10.814400   -1.807800   -2.089500 H        1 SUBUNIT    0.0583
     29 H29         -12.100400   -0.743500   -3.961300 H        1 SUBUNIT    0.0631
     30 Br30        -11.301900    0.713600   -6.467100 Br       1 SUBUNIT   -0.0512
     31 H31          -8.371300    0.406100   -5.869500 H        1 SUBUNIT    0.0594
@<TRIPOS>BOND
     1    1    2 2
     2    1    6 1
     3    1    7 1
     4    2    3 1
     5    3    4 2
     6    3    8 1
     7    4    5 1
     8    4   11 1
     9    5    6 2
    10    5    9 1
    11    6   10 1
    12   11   12 1
    13   11   13 2
    14   12   14 1
    15   12   15 1
    16   15   16 2
    17   15   18 1
    18   16   26 1
    19   16   19 1
    20   17   27 1
    21   17   18 2
    22   17   20 1
    23   18   21 1
    24   22   23 2
    25   22   27 1
    26   22   28 1
    27   23   24 1
    28   23   29 1
    29   24   25 2
    30   24   30 1
    31   25   26 1
    32   25   31 1
    33   26   27 1
@<SCITEGIC>ATOM_PROPERTY
Formal Charge
SciTegic.value.StringValue
1 0
2 0
3 0
4 0
5 0
6 0
7 0
8 0
9 0
10 0
11 0
12 0
13 0
14 0
15 0
16 0
17 0
18 0
19 0
20 0
21 0
22 0
23 0
24 0
25 0
26 0
27 0
28 0
29 0
30 0
31 0

@<SCITEGIC>ATOM_PROPERTY
pdb_tempFactor
SciTegic.value.DoubleValue
1 0.00
2 0.00
3 0.00
4 0.00
5 0.00
6 0.00
7 0.00
8 0.00
9 0.00
10 0.00
11 0.00
12 0.00
13 0.00
14 0.00
15 0.00
16 0.00
17 0.00
18 0.00
19 0.00
20 0.00
21 0.00
22 0.00
23 0.00
24 0.00
25 0.00
26 0.00
27 0.00
28 0.00
29 0.00
30 0.00
31 0.00

@<SCITEGIC>ATOM_PROPERTY
pdb_occupancy
SciTegic.value.DoubleValue
1 1.00
2 1.00
3 1.00
4 1.00
5 1.00
6 1.00
7 1.00
8 1.00
9 1.00
10 1.00
11 1.00
12 1.00
13 1.00
14 1.00
15 1.00
16 1.00
17 1.00
18 1.00
19 1.00
20 1.00
21 1.00
22 1.00
23 1.00
24 1.00
25 1.00
26 1.00
27 1.00
28 1.00
29 1.00
30 1.00
31 1.00

#	copyright 2023 drugdesign.org
#	Creation time:	2024-01-11T10:58:48Z

@<SCITEGIC>ROOT_PROPERTY
Ligand:MaximumNumberOfAtoms
SciTegic.value.IntegerValue
100

@<SCITEGIC>ROOT_PROPERTY
Ligand:HydrogenAtomsCountTowardsMaximum
SciTegic.value.BooleanValue
FALSE

@<TRIPOS>MOLECULE
2_bond_rotate_all.sd
   31    33     0 0 0
SMALL
USER_CHARGES


@<TRIPOS>ATOM
      1 C1            0.000000    0.000000   -2.977000 C.2      1 SUBUNIT    0.0268
      2 N2           -0.702300    1.216400   -2.977000 N.2      1 SUBUNIT   -0.2639
      3 C3           -2.106800    1.216400   -2.977000 C.2      1 SUBUNIT    0.0393
      4 C4           -2.809000    0.000000   -2.977000 C.2      1 SUBUNIT    0.0557
      5 C5           -2.106800   -1.216400   -2.977000 C.2      1 SUBUNIT   -0.0466
      6 C6           -0.702200   -1.216400   -2.977000 C.2      1 SUBUNIT   -0.0430
      7 H7            1.103400    0.000000   -2.977000 H        1 SUBUNIT    0.0840
      8 H8           -2.658500    2.172000   -2.977000 H        1 SUBUNIT    0.0848
      9 H9           -2.658500   -2.171900   -2.977000 H        1 SUBUNIT    0.0632
     10 H10          -0.150500   -2.172000   -2.977000 H        1 SUBUNIT    0.0639
     11 C11          -4.137600   -0.014300   -2.977000 C.2      1 SUBUNIT    0.2487
     12 N12          -4.802000   -1.218200   -2.977000 N.am     1 SUBUNIT   -0.2816
     13 O13          -4.757800    1.040500   -2.977000 O.2      1 SUBUNIT   -0.2715
     14 H14          -4.185400   -2.029400   -2.977000 H        1 SUBUNIT    0.1560
     15 C15          -6.115900   -1.235100   -2.977000 C.2      1 SUBUNIT    0.0291
     16 C16          -6.828300   -1.244200   -4.187500 C.2      1 SUBUNIT   -0.0552
     17 C17          -8.212200   -1.262000   -1.743000 C.2      1 SUBUNIT   -0.0749
     18 C18          -6.807800   -1.243900   -1.754700 C.2      1 SUBUNIT   -0.0444
     19 H19          -6.284600   -1.237200   -5.147700 H        1 SUBUNIT    0.0602
     20 H20          -8.755900   -1.268900   -0.782900 H        1 SUBUNIT    0.0583
     21 H21          -6.248100   -1.236800   -0.803800 H        1 SUBUNIT    0.0639
     22 C22         -10.277300   -1.288500   -2.912400 C.2      1 SUBUNIT   -0.0756
     23 C23         -10.989800   -1.297600   -4.122900 C.2      1 SUBUNIT   -0.0517
     24 C24         -10.297800   -1.288700   -5.345100 C.2      1 SUBUNIT    0.0138
     25 C25          -8.893500   -1.270700   -5.356800 C.2      1 SUBUNIT   -0.0624
     26 C26          -8.181000   -1.261600   -4.146400 C.3      1 SUBUNIT    0.0480
     27 C27          -8.873000   -1.270400   -2.924100 C.3      1 SUBUNIT    0.0452
     28 H28         -10.821000   -1.295400   -1.952200 H        1 SUBUNIT    0.0583
     29 H29         -12.093100   -1.311800   -4.113500 H        1 SUBUNIT    0.0631
     30 Br30        -11.276000   -1.301300   -7.007000 Br       1 SUBUNIT   -0.0512
     31 H31          -8.349900   -1.263700   -6.317000 H        1 SUBUNIT    0.0594
@<TRIPOS>BOND
     1    1    2 2
     2    1    6 1
     3    1    7 1
     4    2    3 1
     5    3    4 2
     6    3    8 1
     7    4    5 1
     8    4   11 1
     9    5    6 2
    10    5    9 1
    11    6   10 1
    12   11   12 1
    13   11   13 2
    14   12   14 1
    15   12   15 1
    16   15   16 2
    17   15   18 1
    18   16   26 1
    19   16   19 1
    20   17   27 1
    21   17   18 2
    22   17   20 1
    23   18   21 1
    24   22   23 2
    25   22   27 1
    26   22   28 1
    27   23   24 1
    28   23   29 1
    29   24   25 2
    30   24   30 1
    31   25   26 1
    32   25   31 1
    33   26   27 1
@<SCITEGIC>ATOM_PROPERTY
Formal Charge
SciTegic.value.StringValue
1 0
2 0
3 0
4 0
5 0
6 0
7 0
8 0
9 0
10 0
11 0
12 0
13 0
14 0
15 0
16 0
17 0
18 0
19 0
20 0
21 0
22 0
23 0
24 0
25 0
26 0
27 0
28 0
29 0
30 0
31 0

@<SCITEGIC>ATOM_PROPERTY
pdb_tempFactor
SciTegic.value.DoubleValue
1 0.00
2 0.00
3 0.00
4 0.00
5 0.00
6 0.00
7 0.00
8 0.00
9 0.00
10 0.00
11 0.00
12 0.00
13 0.00
14 0.00
15 0.00
16 0.00
17 0.00
18 0.00
19 0.00
20 0.00
21 0.00
22 0.00
23 0.00
24 0.00
25 0.00
26 0.00
27 0.00
28 0.00
29 0.00
30 0.00
31 0.00

@<SCITEGIC>ATOM_PROPERTY
pdb_occupancy
SciTegic.value.DoubleValue
1 1.00
2 1.00
3 1.00
4 1.00
5 1.00
6 1.00
7 1.00
8 1.00
9 1.00
10 1.00
11 1.00
12 1.00
13 1.00
14 1.00
15 1.00
16 1.00
17 1.00
18 1.00
19 1.00
20 1.00
21 1.00
22 1.00
23 1.00
24 1.00
25 1.00
26 1.00
27 1.00
28 1.00
29 1.00
30 1.00
31 1.00

#	copyright 2023 drugdesign.org
#	Creation time:	2024-01-11T10:58:48Z

@<SCITEGIC>ROOT_PROPERTY
Ligand:MaximumNumberOfAtoms
SciTegic.value.IntegerValue
100

@<SCITEGIC>ROOT_PROPERTY
Ligand:HydrogenAtomsCountTowardsMaximum
SciTegic.value.BooleanValue
FALSE

@<TRIPOS>MOLECULE
2_bond_rotate_all.sd
   31    33     0 0 0
SMALL
USER_CHARGES


@<TRIPOS>ATOM
      1 C1            0.000000    0.000000   -2.977000 C.2      1 SUBUNIT    0.0268
      2 N2           -0.702300    1.216400   -2.977000 N.2      1 SUBUNIT   -0.2639
      3 C3           -2.106800    1.216400   -2.977000 C.2      1 SUBUNIT    0.0393
      4 C4           -2.809000    0.000000   -2.977000 C.2      1 SUBUNIT    0.0557
      5 C5           -2.106800   -1.216400   -2.977000 C.2      1 SUBUNIT   -0.0466
      6 C6           -0.702200   -1.216400   -2.977000 C.2      1 SUBUNIT   -0.0430
      7 H7            1.103400    0.000000   -2.977000 H        1 SUBUNIT    0.0840
      8 H8           -2.658500    2.172000   -2.977000 H        1 SUBUNIT    0.0848
      9 H9           -2.658500   -2.171900   -2.977000 H        1 SUBUNIT    0.0632
     10 H10          -0.150500   -2.172000   -2.977000 H        1 SUBUNIT    0.0639
     11 C11          -4.137600   -0.014300   -2.977000 C.2      1 SUBUNIT    0.2487
     12 N12          -4.802000   -1.218200   -2.977000 N.am     1 SUBUNIT   -0.2816
     13 O13          -4.757800    1.040500   -2.977000 O.2      1 SUBUNIT   -0.2715
     14 H14          -4.185400   -2.029400   -2.977000 H        1 SUBUNIT    0.1560
     15 C15          -6.115900   -1.235100   -2.977000 C.2      1 SUBUNIT    0.0291
     16 C16          -6.820500   -1.849400   -4.025300 C.2      1 SUBUNIT   -0.0552
     17 C17          -8.220200   -0.645000   -1.908300 C.2      1 SUBUNIT   -0.0749
     18 C18          -6.815600   -0.632900   -1.918500 C.2      1 SUBUNIT   -0.0444
     19 H19          -6.270700   -2.322500   -4.856800 H        1 SUBUNIT    0.0602
     20 H20          -8.769900   -0.172000   -1.076800 H        1 SUBUNIT    0.0583
     21 H21          -6.262100   -0.150300   -1.095000 H        1 SUBUNIT    0.0639
     22 C22         -10.277800   -1.256200   -2.921100 C.2      1 SUBUNIT   -0.0756
     23 C23         -10.982400   -1.870500   -3.969400 C.2      1 SUBUNIT   -0.0517
     24 C24         -10.282600   -2.472700   -5.027800 C.2      1 SUBUNIT    0.0138
     25 C25          -8.878200   -2.460500   -5.038000 C.2      1 SUBUNIT   -0.0624
     26 C26          -8.173500   -1.846200   -3.989800 C.3      1 SUBUNIT    0.0480
     27 C27          -8.873300   -1.244000   -2.931200 C.3      1 SUBUNIT    0.0452
     28 H28         -10.827500   -0.783100   -2.089500 H        1 SUBUNIT    0.0583
     29 H29         -12.085800   -1.880000   -3.961300 H        1 SUBUNIT    0.0631
     30 Br30        -11.250200   -3.316100   -6.467100 Br       1 SUBUNIT   -0.0512
     31 H31          -8.328400   -2.933600   -5.869500 H        1 SUBUNIT    0.0594
@<TRIPOS>BOND
     1    1    2 2
     2    1    6 1
     3    1    7 1
     4    2    3 1
     5    3    4 2
     6    3    8 1
     7    4    5 1
     8    4   11 1
     9    5    6 2
    10    5    9 1
    11    6   10 1
    12   11   12 1
    13   11   13 2
    14   12   14 1
    15   12   15 1
    16   15   16 2
    17   15   18 1
    18   16   26 1
    19   16   19 1
    20   17   27 1
    21   17   18 2
    22   17   20 1
    23   18   21 1
    24   22   23 2
    25   22   27 1
    26   22   28 1
    27   23   24 1
    28   23   29 1
    29   24   25 2
    30   24   30 1
    31   25   26 1
    32   25   31 1
    33   26   27 1
@<SCITEGIC>ATOM_PROPERTY
Formal Charge
SciTegic.value.StringValue
1 0
2 0
3 0
4 0
5 0
6 0
7 0
8 0
9 0
10 0
11 0
12 0
13 0
14 0
15 0
16 0
17 0
18 0
19 0
20 0
21 0
22 0
23 0
24 0
25 0
26 0
27 0
28 0
29 0
30 0
31 0

@<SCITEGIC>ATOM_PROPERTY
pdb_tempFactor
SciTegic.value.DoubleValue
1 0.00
2 0.00
3 0.00
4 0.00
5 0.00
6 0.00
7 0.00
8 0.00
9 0.00
10 0.00
11 0.00
12 0.00
13 0.00
14 0.00
15 0.00
16 0.00
17 0.00
18 0.00
19 0.00
20 0.00
21 0.00
22 0.00
23 0.00
24 0.00
25 0.00
26 0.00
27 0.00
28 0.00
29 0.00
30 0.00
31 0.00

@<SCITEGIC>ATOM_PROPERTY
pdb_occupancy
SciTegic.value.DoubleValue
1 1.00
2 1.00
3 1.00
4 1.00
5 1.00
6 1.00
7 1.00
8 1.00
9 1.00
10 1.00
11 1.00
12 1.00
13 1.00
14 1.00
15 1.00
16 1.00
17 1.00
18 1.00
19 1.00
20 1.00
21 1.00
22 1.00
23 1.00
24 1.00
25 1.00
26 1.00
27 1.00
28 1.00
29 1.00
30 1.00
31 1.00

#	copyright 2023 drugdesign.org
#	Creation time:	2024-01-11T10:58:48Z

@<SCITEGIC>ROOT_PROPERTY
Ligand:MaximumNumberOfAtoms
SciTegic.value.IntegerValue
100

@<SCITEGIC>ROOT_PROPERTY
Ligand:HydrogenAtomsCountTowardsMaximum
SciTegic.value.BooleanValue
FALSE

@<TRIPOS>MOLECULE
2_bond_rotate_all.sd
   31    33     0 0 0
SMALL
USER_CHARGES


@<TRIPOS>ATOM
      1 C1            0.000000    0.000000   -2.977000 C.2      1 SUBUNIT    0.0268
      2 N2           -0.702300    1.216400   -2.977000 N.2      1 SUBUNIT   -0.2639
      3 C3           -2.106800    1.216400   -2.977000 C.2      1 SUBUNIT    0.0393
      4 C4           -2.809000    0.000000   -2.977000 C.2      1 SUBUNIT    0.0557
      5 C5           -2.106800   -1.216400   -2.977000 C.2      1 SUBUNIT   -0.0466
      6 C6           -0.702200   -1.216400   -2.977000 C.2      1 SUBUNIT   -0.0430
      7 H7            1.103400    0.000000   -2.977000 H        1 SUBUNIT    0.0840
      8 H8           -2.658500    2.172000   -2.977000 H        1 SUBUNIT    0.0848
      9 H9           -2.658500   -2.171900   -2.977000 H        1 SUBUNIT    0.0632
     10 H10          -0.150500   -2.172000   -2.977000 H        1 SUBUNIT    0.0639
     11 C11          -4.137600   -0.014300   -2.977000 C.2      1 SUBUNIT    0.2487
     12 N12          -4.802000   -1.218200   -2.977000 N.am     1 SUBUNIT   -0.2816
     13 O13          -4.757800    1.040500   -2.977000 O.2      1 SUBUNIT   -0.2715
     14 H14          -4.185400   -2.029400   -2.977000 H        1 SUBUNIT    0.1560
     15 C15          -6.115900   -1.235100   -2.977000 C.2      1 SUBUNIT    0.0291
     16 C16          -6.814800   -2.292400   -3.582200 C.2      1 SUBUNIT   -0.0552
     17 C17          -8.225900   -0.193400   -2.360000 C.2      1 SUBUNIT   -0.0749
     18 C18          -6.821400   -0.185500   -2.365900 C.2      1 SUBUNIT   -0.0444
     19 H19          -6.260500   -3.116900   -4.062300 H        1 SUBUNIT    0.0602
     20 H20          -8.780200    0.631100   -1.879900 H        1 SUBUNIT    0.0583
     21 H21          -6.272300    0.645100   -1.890400 H        1 SUBUNIT    0.0639
     22 C22         -10.278100   -1.232500   -2.944700 C.2      1 SUBUNIT   -0.0756
     23 C23         -10.977000   -2.289900   -3.549900 C.2      1 SUBUNIT   -0.0517
     24 C24         -10.271500   -3.339400   -4.161000 C.2      1 SUBUNIT    0.0138
     25 C25          -8.867000   -3.331500   -4.166900 C.2      1 SUBUNIT   -0.0624
     26 C26          -8.168000   -2.274200   -3.561700 C.3      1 SUBUNIT    0.0480
     27 C27          -8.873600   -1.224700   -2.950600 C.3      1 SUBUNIT    0.0452
     28 H28         -10.832300   -0.408100   -2.464600 H        1 SUBUNIT    0.0583
     29 H29         -12.080500   -2.295900   -3.545300 H        1 SUBUNIT    0.0631
     30 Br30        -11.231300   -4.791100   -4.992000 Br       1 SUBUNIT   -0.0512
     31 H31          -8.312700   -4.156000   -4.647000 H        1 SUBUNIT    0.0594
@<TRIPOS>BOND
     1    1    2 2
     2    1    6 1
     3    1    7 1
     4    2    3 1
     5    3    4 2
     6    3    8 1
     7    4    5 1
     8    4   11 1
     9    5    6 2
    10    5    9 1
    11    6   10 1
    12   11   12 1
    13   11   13 2
    14   12   14 1
    15   12   15 1
    16   15   16 2
    17   15   18 1
    18   16   26 1
    19   16   19 1
    20   17   27 1
    21   17   18 2
    22   17   20 1
    23   18   21 1
    24   22   23 2
    25   22   27 1
    26   22   28 1
    27   23   24 1
    28   23   29 1
    29   24   25 2
    30   24   30 1
    31   25   26 1
    32   25   31 1
    33   26   27 1
@<SCITEGIC>ATOM_PROPERTY
Formal Charge
SciTegic.value.StringValue
1 0
2 0
3 0
4 0
5 0
6 0
7 0
8 0
9 0
10 0
11 0
12 0
13 0
14 0
15 0
16 0
17 0
18 0
19 0
20 0
21 0
22 0
23 0
24 0
25 0
26 0
27 0
28 0
29 0
30 0
31 0

@<SCITEGIC>ATOM_PROPERTY
pdb_tempFactor
SciTegic.value.DoubleValue
1 0.00
2 0.00
3 0.00
4 0.00
5 0.00
6 0.00
7 0.00
8 0.00
9 0.00
10 0.00
11 0.00
12 0.00
13 0.00
14 0.00
15 0.00
16 0.00
17 0.00
18 0.00
19 0.00
20 0.00
21 0.00
22 0.00
23 0.00
24 0.00
25 0.00
26 0.00
27 0.00
28 0.00
29 0.00
30 0.00
31 0.00

@<SCITEGIC>ATOM_PROPERTY
pdb_occupancy
SciTegic.value.DoubleValue
1 1.00
2 1.00
3 1.00
4 1.00
5 1.00
6 1.00
7 1.00
8 1.00
9 1.00
10 1.00
11 1.00
12 1.00
13 1.00
14 1.00
15 1.00
16 1.00
17 1.00
18 1.00
19 1.00
20 1.00
21 1.00
22 1.00
23 1.00
24 1.00
25 1.00
26 1.00
27 1.00
28 1.00
29 1.00
30 1.00
31 1.00

#	copyright 2023 drugdesign.org
#	Creation time:	2024-01-11T10:58:48Z

@<SCITEGIC>ROOT_PROPERTY
Ligand:MaximumNumberOfAtoms
SciTegic.value.IntegerValue
100

@<SCITEGIC>ROOT_PROPERTY
Ligand:HydrogenAtomsCountTowardsMaximum
SciTegic.value.BooleanValue
FALSE

@<TRIPOS>MOLECULE
2_bond_rotate_all.sd
   31    33     0 0 0
SMALL
USER_CHARGES


@<TRIPOS>ATOM
      1 C1            0.000000    0.000000   -2.977000 C.2      1 SUBUNIT    0.0268
      2 N2           -0.702300    1.216400   -2.977000 N.2      1 SUBUNIT   -0.2639
      3 C3           -2.106800    1.216400   -2.977000 C.2      1 SUBUNIT    0.0393
      4 C4           -2.809000    0.000000   -2.977000 C.2      1 SUBUNIT    0.0557
      5 C5           -2.106800   -1.216400   -2.977000 C.2      1 SUBUNIT   -0.0466
      6 C6           -0.702200   -1.216400   -2.977000 C.2      1 SUBUNIT   -0.0430
      7 H7            1.103400    0.000000   -2.977000 H        1 SUBUNIT    0.0840
      8 H8           -2.658500    2.172000   -2.977000 H        1 SUBUNIT    0.0848
      9 H9           -2.658500   -2.171900   -2.977000 H        1 SUBUNIT    0.0632
     10 H10          -0.150500   -2.172000   -2.977000 H        1 SUBUNIT    0.0639
     11 C11          -4.137600   -0.014300   -2.977000 C.2      1 SUBUNIT    0.2487
     12 N12          -4.802000   -1.218200   -2.977000 N.am     1 SUBUNIT   -0.2816
     13 O13          -4.757800    1.040500   -2.977000 O.2      1 SUBUNIT   -0.2715
     14 H14          -4.185400   -2.029400   -2.977000 H        1 SUBUNIT    0.1560
     15 C15          -6.115900   -1.235100   -2.977000 C.2      1 SUBUNIT    0.0291
     16 C16          -6.812800   -2.454600   -2.977000 C.2      1 SUBUNIT   -0.0552
     17 C17          -8.228100   -0.028000   -2.977000 C.2      1 SUBUNIT   -0.0749
     18 C18          -6.823500   -0.021800   -2.977000 C.2      1 SUBUNIT   -0.0444
     19 H19          -6.256700   -3.407700   -2.977000 H        1 SUBUNIT    0.0602
     20 H20          -8.784000    0.925000   -2.977000 H        1 SUBUNIT    0.0583
     21 H21          -6.276000    0.936200   -2.977000 H        1 SUBUNIT    0.0639
     22 C22         -10.278200   -1.223900   -2.977000 C.2      1 SUBUNIT   -0.0756
     23 C23         -10.975100   -2.443400   -2.977000 C.2      1 SUBUNIT   -0.0517
     24 C24         -10.267400   -3.656600   -2.977000 C.2      1 SUBUNIT    0.0138
     25 C25          -8.862900   -3.650300   -2.977000 C.2      1 SUBUNIT   -0.0624
     26 C26          -8.166000   -2.430900   -2.977000 C.3      1 SUBUNIT    0.0480
     27 C27          -8.873700   -1.217600   -2.977000 C.3      1 SUBUNIT    0.0452
     28 H28         -10.834100   -0.270800   -2.977000 H        1 SUBUNIT    0.0583
     29 H29         -12.078500   -2.448200   -2.977000 H        1 SUBUNIT    0.0631
     30 Br30        -11.224300   -5.331000   -2.977000 Br       1 SUBUNIT   -0.0512
     31 H31          -8.307000   -4.603400   -2.977000 H        1 SUBUNIT    0.0594
@<TRIPOS>BOND
     1    1    2 2
     2    1    6 1
     3    1    7 1
     4    2    3 1
     5    3    4 2
     6    3    8 1
     7    4    5 1
     8    4   11 1
     9    5    6 2
    10    5    9 1
    11    6   10 1
    12   11   12 1
    13   11   13 2
    14   12   14 1
    15   12   15 1
    16   15   16 2
    17   15   18 1
    18   16   26 1
    19   16   19 1
    20   17   27 1
    21   17   18 2
    22   17   20 1
    23   18   21 1
    24   22   23 2
    25   22   27 1
    26   22   28 1
    27   23   24 1
    28   23   29 1
    29   24   25 2
    30   24   30 1
    31   25   26 1
    32   25   31 1
    33   26   27 1
@<SCITEGIC>ATOM_PROPERTY
Formal Charge
SciTegic.value.StringValue
1 0
2 0
3 0
4 0
5 0
6 0
7 0
8 0
9 0
10 0
11 0
12 0
13 0
14 0
15 0
16 0
17 0
18 0
19 0
20 0
21 0
22 0
23 0
24 0
25 0
26 0
27 0
28 0
29 0
30 0
31 0

@<SCITEGIC>ATOM_PROPERTY
pdb_tempFactor
SciTegic.value.DoubleValue
1 0.00
2 0.00
3 0.00
4 0.00
5 0.00
6 0.00
7 0.00
8 0.00
9 0.00
10 0.00
11 0.00
12 0.00
13 0.00
14 0.00
15 0.00
16 0.00
17 0.00
18 0.00
19 0.00
20 0.00
21 0.00
22 0.00
23 0.00
24 0.00
25 0.00
26 0.00
27 0.00
28 0.00
29 0.00
30 0.00
31 0.00

@<SCITEGIC>ATOM_PROPERTY
pdb_occupancy
SciTegic.value.DoubleValue
1 1.00
2 1.00
3 1.00
4 1.00
5 1.00
6 1.00
7 1.00
8 1.00
9 1.00
10 1.00
11 1.00
12 1.00
13 1.00
14 1.00
15 1.00
16 1.00
17 1.00
18 1.00
19 1.00
20 1.00
21 1.00
22 1.00
23 1.00
24 1.00
25 1.00
26 1.00
27 1.00
28 1.00
29 1.00
30 1.00
31 1.00

#	copyright 2023 drugdesign.org
#	Creation time:	2024-01-11T10:58:48Z

@<SCITEGIC>ROOT_PROPERTY
Ligand:MaximumNumberOfAtoms
SciTegic.value.IntegerValue
100

@<SCITEGIC>ROOT_PROPERTY
Ligand:HydrogenAtomsCountTowardsMaximum
SciTegic.value.BooleanValue
FALSE

@<TRIPOS>MOLECULE
2_bond_rotate_all.sd
   31    33     0 0 0
SMALL
USER_CHARGES


@<TRIPOS>ATOM
      1 C1            0.000000    0.000000   -2.977000 C.2      1 SUBUNIT    0.0268
      2 N2           -0.702300    1.216400   -2.977000 N.2      1 SUBUNIT   -0.2639
      3 C3           -2.106800    1.216400   -2.977000 C.2      1 SUBUNIT    0.0393
      4 C4           -2.809000    0.000000   -2.977000 C.2      1 SUBUNIT    0.0557
      5 C5           -2.106800   -1.216400   -2.977000 C.2      1 SUBUNIT   -0.0466
      6 C6           -0.702200   -1.216400   -2.977000 C.2      1 SUBUNIT   -0.0430
      7 H7            1.103400    0.000000   -2.977000 H        1 SUBUNIT    0.0840
      8 H8           -2.658500    2.172000   -2.977000 H        1 SUBUNIT    0.0848
      9 H9           -2.658500   -2.171900   -2.977000 H        1 SUBUNIT    0.0632
     10 H10          -0.150500   -2.172000   -2.977000 H        1 SUBUNIT    0.0639
     11 C11          -4.137600   -0.014300   -2.977000 C.2      1 SUBUNIT    0.2487
     12 N12          -4.802000   -1.218200   -2.977000 N.am     1 SUBUNIT   -0.2816
     13 O13          -4.757800    1.040500   -2.977000 O.2      1 SUBUNIT   -0.2715
     14 H14          -4.185400   -2.029400   -2.977000 H        1 SUBUNIT    0.1560
     15 C15          -6.115900   -1.235100   -2.977000 C.2      1 SUBUNIT    0.0291
     16 C16          -6.814800   -2.292400   -2.371800 C.2      1 SUBUNIT   -0.0552
     17 C17          -8.225900   -0.193400   -3.594000 C.2      1 SUBUNIT   -0.0749
     18 C18          -6.821400   -0.185500   -3.588100 C.2      1 SUBUNIT   -0.0444
     19 H19          -6.260500   -3.116900   -1.891700 H        1 SUBUNIT    0.0602
     20 H20          -8.780200    0.631100   -4.074000 H        1 SUBUNIT    0.0583
     21 H21          -6.272300    0.645100   -4.063600 H        1 SUBUNIT    0.0639
     22 C22         -10.278100   -1.232500   -3.009300 C.2      1 SUBUNIT   -0.0756
     23 C23         -10.977000   -2.289900   -2.404000 C.2      1 SUBUNIT   -0.0517
     24 C24         -10.271500   -3.339400   -1.792900 C.2      1 SUBUNIT    0.0138
     25 C25          -8.867000   -3.331500   -1.787100 C.2      1 SUBUNIT   -0.0624
     26 C26          -8.168000   -2.274200   -2.392300 C.3      1 SUBUNIT    0.0480
     27 C27          -8.873600   -1.224700   -3.003400 C.3      1 SUBUNIT    0.0452
     28 H28         -10.832300   -0.408000   -3.489400 H        1 SUBUNIT    0.0583
     29 H29         -12.080500   -2.295900   -2.408700 H        1 SUBUNIT    0.0631
     30 Br30        -11.231300   -4.791100   -0.962000 Br       1 SUBUNIT   -0.0512
     31 H31          -8.312700   -4.156000   -1.307000 H        1 SUBUNIT    0.0594
@<TRIPOS>BOND
     1    1    2 2
     2    1    6 1
     3    1    7 1
     4    2    3 1
     5    3    4 2
     6    3    8 1
     7    4    5 1
     8    4   11 1
     9    5    6 2
    10    5    9 1
    11    6   10 1
    12   11   12 1
    13   11   13 2
    14   12   14 1
    15   12   15 1
    16   15   16 2
    17   15   18 1
    18   16   26 1
    19   16   19 1
    20   17   27 1
    21   17   18 2
    22   17   20 1
    23   18   21 1
    24   22   23 2
    25   22   27 1
    26   22   28 1
    27   23   24 1
    28   23   29 1
    29   24   25 2
    30   24   30 1
    31   25   26 1
    32   25   31 1
    33   26   27 1
@<SCITEGIC>ATOM_PROPERTY
Formal Charge
SciTegic.value.StringValue
1 0
2 0
3 0
4 0
5 0
6 0
7 0
8 0
9 0
10 0
11 0
12 0
13 0
14 0
15 0
16 0
17 0
18 0
19 0
20 0
21 0
22 0
23 0
24 0
25 0
26 0
27 0
28 0
29 0
30 0
31 0

@<SCITEGIC>ATOM_PROPERTY
pdb_tempFactor
SciTegic.value.DoubleValue
1 0.00
2 0.00
3 0.00
4 0.00
5 0.00
6 0.00
7 0.00
8 0.00
9 0.00
10 0.00
11 0.00
12 0.00
13 0.00
14 0.00
15 0.00
16 0.00
17 0.00
18 0.00
19 0.00
20 0.00
21 0.00
22 0.00
23 0.00
24 0.00
25 0.00
26 0.00
27 0.00
28 0.00
29 0.00
30 0.00
31 0.00

@<SCITEGIC>ATOM_PROPERTY
pdb_occupancy
SciTegic.value.DoubleValue
1 1.00
2 1.00
3 1.00
4 1.00
5 1.00
6 1.00
7 1.00
8 1.00
9 1.00
10 1.00
11 1.00
12 1.00
13 1.00
14 1.00
15 1.00
16 1.00
17 1.00
18 1.00
19 1.00
20 1.00
21 1.00
22 1.00
23 1.00
24 1.00
25 1.00
26 1.00
27 1.00
28 1.00
29 1.00
30 1.00
31 1.00

#	copyright 2023 drugdesign.org
#	Creation time:	2024-01-11T10:58:48Z

@<SCITEGIC>ROOT_PROPERTY
Ligand:MaximumNumberOfAtoms
SciTegic.value.IntegerValue
100

@<SCITEGIC>ROOT_PROPERTY
Ligand:HydrogenAtomsCountTowardsMaximum
SciTegic.value.BooleanValue
FALSE

@<TRIPOS>MOLECULE
2_bond_rotate_all.sd
   31    33     0 0 0
SMALL
USER_CHARGES


@<TRIPOS>ATOM
      1 C1            0.000000    0.000000   -2.977000 C.2      1 SUBUNIT    0.0268
      2 N2           -0.702300    1.216400   -2.977000 N.2      1 SUBUNIT   -0.2639
      3 C3           -2.106800    1.216400   -2.977000 C.2      1 SUBUNIT    0.0393
      4 C4           -2.809000    0.000000   -2.977000 C.2      1 SUBUNIT    0.0557
      5 C5           -2.106800   -1.216400   -2.977000 C.2      1 SUBUNIT   -0.0466
      6 C6           -0.702200   -1.216400   -2.977000 C.2      1 SUBUNIT   -0.0430
      7 H7            1.103400    0.000000   -2.977000 H        1 SUBUNIT    0.0840
      8 H8           -2.658500    2.172000   -2.977000 H        1 SUBUNIT    0.0848
      9 H9           -2.658500   -2.171900   -2.977000 H        1 SUBUNIT    0.0632
     10 H10          -0.150500   -2.172000   -2.977000 H        1 SUBUNIT    0.0639
     11 C11          -4.137600   -0.014300   -2.977000 C.2      1 SUBUNIT    0.2487
     12 N12          -4.802000   -1.218200   -2.977000 N.am     1 SUBUNIT   -0.2816
     13 O13          -4.757800    1.040500   -2.977000 O.2      1 SUBUNIT   -0.2715
     14 H14          -4.185400   -2.029400   -2.977000 H        1 SUBUNIT    0.1560
     15 C15          -6.115900   -1.235100   -2.977000 C.2      1 SUBUNIT    0.0291
     16 C16          -6.820500   -1.849400   -1.928700 C.2      1 SUBUNIT   -0.0552
     17 C17          -8.220200   -0.645000   -4.045700 C.2      1 SUBUNIT   -0.0749
     18 C18          -6.815600   -0.632900   -4.035500 C.2      1 SUBUNIT   -0.0444
     19 H19          -6.270600   -2.322500   -1.097100 H        1 SUBUNIT    0.0602
     20 H20          -8.769900   -0.172000   -4.877200 H        1 SUBUNIT    0.0583
     21 H21          -6.262100   -0.150300   -4.859000 H        1 SUBUNIT    0.0639
     22 C22         -10.277800   -1.256200   -3.032900 C.2      1 SUBUNIT   -0.0756
     23 C23         -10.982400   -1.870500   -1.984600 C.2      1 SUBUNIT   -0.0517
     24 C24         -10.282600   -2.472700   -0.926200 C.2      1 SUBUNIT    0.0138
     25 C25          -8.878200   -2.460500   -0.916000 C.2      1 SUBUNIT   -0.0624
     26 C26          -8.173500   -1.846200   -1.964200 C.3      1 SUBUNIT    0.0480
     27 C27          -8.873300   -1.244000   -3.022700 C.3      1 SUBUNIT    0.0452
     28 H28         -10.827500   -0.783100   -3.864400 H        1 SUBUNIT    0.0583
     29 H29         -12.085800   -1.880000   -1.992700 H        1 SUBUNIT    0.0631
     30 Br30        -11.250200   -3.316100    0.513100 Br       1 SUBUNIT   -0.0512
     31 H31          -8.328400   -2.933600   -0.084500 H        1 SUBUNIT    0.0594
@<TRIPOS>BOND
     1    1    2 2
     2    1    6 1
     3    1    7 1
     4    2    3 1
     5    3    4 2
     6    3    8 1
     7    4    5 1
     8    4   11 1
     9    5    6 2
    10    5    9 1
    11    6   10 1
    12   11   12 1
    13   11   13 2
    14   12   14 1
    15   12   15 1
    16   15   16 2
    17   15   18 1
    18   16   26 1
    19   16   19 1
    20   17   27 1
    21   17   18 2
    22   17   20 1
    23   18   21 1
    24   22   23 2
    25   22   27 1
    26   22   28 1
    27   23   24 1
    28   23   29 1
    29   24   25 2
    30   24   30 1
    31   25   26 1
    32   25   31 1
    33   26   27 1
@<SCITEGIC>ATOM_PROPERTY
Formal Charge
SciTegic.value.StringValue
1 0
2 0
3 0
4 0
5 0
6 0
7 0
8 0
9 0
10 0
11 0
12 0
13 0
14 0
15 0
16 0
17 0
18 0
19 0
20 0
21 0
22 0
23 0
24 0
25 0
26 0
27 0
28 0
29 0
30 0
31 0

@<SCITEGIC>ATOM_PROPERTY
pdb_tempFactor
SciTegic.value.DoubleValue
1 0.00
2 0.00
3 0.00
4 0.00
5 0.00
6 0.00
7 0.00
8 0.00
9 0.00
10 0.00
11 0.00
12 0.00
13 0.00
14 0.00
15 0.00
16 0.00
17 0.00
18 0.00
19 0.00
20 0.00
21 0.00
22 0.00
23 0.00
24 0.00
25 0.00
26 0.00
27 0.00
28 0.00
29 0.00
30 0.00
31 0.00

@<SCITEGIC>ATOM_PROPERTY
pdb_occupancy
SciTegic.value.DoubleValue
1 1.00
2 1.00
3 1.00
4 1.00
5 1.00
6 1.00
7 1.00
8 1.00
9 1.00
10 1.00
11 1.00
12 1.00
13 1.00
14 1.00
15 1.00
16 1.00
17 1.00
18 1.00
19 1.00
20 1.00
21 1.00
22 1.00
23 1.00
24 1.00
25 1.00
26 1.00
27 1.00
28 1.00
29 1.00
30 1.00
31 1.00

#	copyright 2023 drugdesign.org
#	Creation time:	2024-01-11T10:58:48Z

@<SCITEGIC>ROOT_PROPERTY
Ligand:MaximumNumberOfAtoms
SciTegic.value.IntegerValue
100

@<SCITEGIC>ROOT_PROPERTY
Ligand:HydrogenAtomsCountTowardsMaximum
SciTegic.value.BooleanValue
FALSE

@<TRIPOS>MOLECULE
2_bond_rotate_all.sd
   31    33     0 0 0
SMALL
USER_CHARGES


@<TRIPOS>ATOM
      1 C1            0.000000    0.000000   -2.977000 C.2      1 SUBUNIT    0.0268
      2 N2           -0.702300    1.216400   -2.977000 N.2      1 SUBUNIT   -0.2639
      3 C3           -2.106800    1.216400   -2.977000 C.2      1 SUBUNIT    0.0393
      4 C4           -2.809000    0.000000   -2.977000 C.2      1 SUBUNIT    0.0557
      5 C5           -2.106800   -1.216400   -2.977000 C.2      1 SUBUNIT   -0.0466
      6 C6           -0.702200   -1.216400   -2.977000 C.2      1 SUBUNIT   -0.0430
      7 H7            1.103400    0.000000   -2.977000 H        1 SUBUNIT    0.0840
      8 H8           -2.658500    2.172000   -2.977000 H        1 SUBUNIT    0.0848
      9 H9           -2.658500   -2.171900   -2.977000 H        1 SUBUNIT    0.0632
     10 H10          -0.150500   -2.172000   -2.977000 H        1 SUBUNIT    0.0639
     11 C11          -4.137600   -0.014300   -2.977000 C.2      1 SUBUNIT    0.2487
     12 N12          -4.802000   -1.218200   -2.977000 N.am     1 SUBUNIT   -0.2816
     13 O13          -4.757800    1.040500   -2.977000 O.2      1 SUBUNIT   -0.2715
     14 H14          -4.185400   -2.029400   -2.977000 H        1 SUBUNIT    0.1560
     15 C15          -6.115900   -1.235100   -2.977000 C.2      1 SUBUNIT    0.0291
     16 C16          -6.828300   -1.244200   -1.766500 C.2      1 SUBUNIT   -0.0552
     17 C17          -8.212200   -1.262000   -4.211000 C.2      1 SUBUNIT   -0.0749
     18 C18          -6.807800   -1.243900   -4.199200 C.2      1 SUBUNIT   -0.0444
     19 H19          -6.284600   -1.237200   -0.806300 H        1 SUBUNIT    0.0602
     20 H20          -8.755900   -1.268900   -5.171100 H        1 SUBUNIT    0.0583
     21 H21          -6.248200   -1.236800   -5.150200 H        1 SUBUNIT    0.0639
     22 C22         -10.277300   -1.288500   -3.041600 C.2      1 SUBUNIT   -0.0756
     23 C23         -10.989800   -1.297600   -1.831100 C.2      1 SUBUNIT   -0.0517
     24 C24         -10.297800   -1.288700   -0.608900 C.2      1 SUBUNIT    0.0138
     25 C25          -8.893500   -1.270700   -0.597200 C.2      1 SUBUNIT   -0.0624
     26 C26          -8.181000   -1.261600   -1.807500 C.3      1 SUBUNIT    0.0480
     27 C27          -8.873000   -1.270400   -3.029800 C.3      1 SUBUNIT    0.0452
     28 H28         -10.821000   -1.295400   -4.001700 H        1 SUBUNIT    0.0583
     29 H29         -12.093100   -1.311800   -1.840400 H        1 SUBUNIT    0.0631
     30 Br30        -11.276000   -1.301300    1.053100 Br       1 SUBUNIT   -0.0512
     31 H31          -8.349900   -1.263700    0.363000 H        1 SUBUNIT    0.0594
@<TRIPOS>BOND
     1    1    2 2
     2    1    6 1
     3    1    7 1
     4    2    3 1
     5    3    4 2
     6    3    8 1
     7    4    5 1
     8    4   11 1
     9    5    6 2
    10    5    9 1
    11    6   10 1
    12   11   12 1
    13   11   13 2
    14   12   14 1
    15   12   15 1
    16   15   16 2
    17   15   18 1
    18   16   26 1
    19   16   19 1
    20   17   27 1
    21   17   18 2
    22   17   20 1
    23   18   21 1
    24   22   23 2
    25   22   27 1
    26   22   28 1
    27   23   24 1
    28   23   29 1
    29   24   25 2
    30   24   30 1
    31   25   26 1
    32   25   31 1
    33   26   27 1
@<SCITEGIC>ATOM_PROPERTY
Formal Charge
SciTegic.value.StringValue
1 0
2 0
3 0
4 0
5 0
6 0
7 0
8 0
9 0
10 0
11 0
12 0
13 0
14 0
15 0
16 0
17 0
18 0
19 0
20 0
21 0
22 0
23 0
24 0
25 0
26 0
27 0
28 0
29 0
30 0
31 0

@<SCITEGIC>ATOM_PROPERTY
pdb_tempFactor
SciTegic.value.DoubleValue
1 0.00
2 0.00
3 0.00
4 0.00
5 0.00
6 0.00
7 0.00
8 0.00
9 0.00
10 0.00
11 0.00
12 0.00
13 0.00
14 0.00
15 0.00
16 0.00
17 0.00
18 0.00
19 0.00
20 0.00
21 0.00
22 0.00
23 0.00
24 0.00
25 0.00
26 0.00
27 0.00
28 0.00
29 0.00
30 0.00
31 0.00

@<SCITEGIC>ATOM_PROPERTY
pdb_occupancy
SciTegic.value.DoubleValue
1 1.00
2 1.00
3 1.00
4 1.00
5 1.00
6 1.00
7 1.00
8 1.00
9 1.00
10 1.00
11 1.00
12 1.00
13 1.00
14 1.00
15 1.00
16 1.00
17 1.00
18 1.00
19 1.00
20 1.00
21 1.00
22 1.00
23 1.00
24 1.00
25 1.00
26 1.00
27 1.00
28 1.00
29 1.00
30 1.00
31 1.00

#	copyright 2023 drugdesign.org
#	Creation time:	2024-01-11T10:58:48Z

@<SCITEGIC>ROOT_PROPERTY
Ligand:MaximumNumberOfAtoms
SciTegic.value.IntegerValue
100

@<SCITEGIC>ROOT_PROPERTY
Ligand:HydrogenAtomsCountTowardsMaximum
SciTegic.value.BooleanValue
FALSE

@<TRIPOS>MOLECULE
2_bond_rotate_all.sd
   31    33     0 0 0
SMALL
USER_CHARGES


@<TRIPOS>ATOM
      1 C1            0.000000    0.000000   -2.977000 C.2      1 SUBUNIT    0.0268
      2 N2           -0.702300    1.216400   -2.977000 N.2      1 SUBUNIT   -0.2639
      3 C3           -2.106800    1.216400   -2.977000 C.2      1 SUBUNIT    0.0393
      4 C4           -2.809000    0.000000   -2.977000 C.2      1 SUBUNIT    0.0557
      5 C5           -2.106800   -1.216400   -2.977000 C.2      1 SUBUNIT   -0.0466
      6 C6           -0.702200   -1.216400   -2.977000 C.2      1 SUBUNIT   -0.0430
      7 H7            1.103400    0.000000   -2.977000 H        1 SUBUNIT    0.0840
      8 H8           -2.658500    2.172000   -2.977000 H        1 SUBUNIT    0.0848
      9 H9           -2.658500   -2.171900   -2.977000 H        1 SUBUNIT    0.0632
     10 H10          -0.150500   -2.172000   -2.977000 H        1 SUBUNIT    0.0639
     11 C11          -4.137600   -0.014300   -2.977000 C.2      1 SUBUNIT    0.2487
     12 N12          -4.802000   -1.218200   -2.977000 N.am     1 SUBUNIT   -0.2816
     13 O13          -4.757800    1.040500   -2.977000 O.2      1 SUBUNIT   -0.2715
     14 H14          -4.185400   -2.029400   -2.977000 H        1 SUBUNIT    0.1560
     15 C15          -6.115900   -1.235100   -2.977000 C.2      1 SUBUNIT    0.0291
     16 C16          -6.836100   -0.639000   -1.928700 C.2      1 SUBUNIT   -0.0552
     17 C17          -8.204300   -1.878900   -4.045700 C.2      1 SUBUNIT   -0.0749
     18 C18          -6.800000   -1.855000   -4.035500 C.2      1 SUBUNIT   -0.0444
     19 H19          -6.298500   -0.152000   -1.097100 H        1 SUBUNIT    0.0602
     20 H20          -8.741800   -2.365900   -4.877200 H        1 SUBUNIT    0.0583
     21 H21          -6.234200   -2.323300   -4.859000 H        1 SUBUNIT    0.0639
     22 C22         -10.276900   -1.320700   -3.032900 C.2      1 SUBUNIT   -0.0756
     23 C23         -10.997100   -0.724700   -1.984600 C.2      1 SUBUNIT   -0.0517
     24 C24         -10.313000   -0.104800   -0.926200 C.2      1 SUBUNIT    0.0138
     25 C25          -8.908700   -0.080900   -0.916000 C.2      1 SUBUNIT   -0.0624
     26 C26          -8.188500   -0.676900   -1.964200 C.3      1 SUBUNIT    0.0480
     27 C27          -8.872600   -1.296900   -3.022800 C.3      1 SUBUNIT    0.0452
     28 H28         -10.814400   -1.807800   -3.864400 H        1 SUBUNIT    0.0583
     29 H29         -12.100400   -0.743500   -1.992700 H        1 SUBUNIT    0.0631
     30 Br30        -11.301900    0.713600    0.513100 Br       1 SUBUNIT   -0.0512
     31 H31          -8.371300    0.406100   -0.084500 H        1 SUBUNIT    0.0594
@<TRIPOS>BOND
     1    1    2 2
     2    1    6 1
     3    1    7 1
     4    2    3 1
     5    3    4 2
     6    3    8 1
     7    4    5 1
     8    4   11 1
     9    5    6 2
    10    5    9 1
    11    6   10 1
    12   11   12 1
    13   11   13 2
    14   12   14 1
    15   12   15 1
    16   15   16 2
    17   15   18 1
    18   16   26 1
    19   16   19 1
    20   17   27 1
    21   17   18 2
    22   17   20 1
    23   18   21 1
    24   22   23 2
    25   22   27 1
    26   22   28 1
    27   23   24 1
    28   23   29 1
    29   24   25 2
    30   24   30 1
    31   25   26 1
    32   25   31 1
    33   26   27 1
@<SCITEGIC>ATOM_PROPERTY
Formal Charge
SciTegic.value.StringValue
1 0
2 0
3 0
4 0
5 0
6 0
7 0
8 0
9 0
10 0
11 0
12 0
13 0
14 0
15 0
16 0
17 0
18 0
19 0
20 0
21 0
22 0
23 0
24 0
25 0
26 0
27 0
28 0
29 0
30 0
31 0

@<SCITEGIC>ATOM_PROPERTY
pdb_tempFactor
SciTegic.value.DoubleValue
1 0.00
2 0.00
3 0.00
4 0.00
5 0.00
6 0.00
7 0.00
8 0.00
9 0.00
10 0.00
11 0.00
12 0.00
13 0.00
14 0.00
15 0.00
16 0.00
17 0.00
18 0.00
19 0.00
20 0.00
21 0.00
22 0.00
23 0.00
24 0.00
25 0.00
26 0.00
27 0.00
28 0.00
29 0.00
30 0.00
31 0.00

@<SCITEGIC>ATOM_PROPERTY
pdb_occupancy
SciTegic.value.DoubleValue
1 1.00
2 1.00
3 1.00
4 1.00
5 1.00
6 1.00
7 1.00
8 1.00
9 1.00
10 1.00
11 1.00
12 1.00
13 1.00
14 1.00
15 1.00
16 1.00
17 1.00
18 1.00
19 1.00
20 1.00
21 1.00
22 1.00
23 1.00
24 1.00
25 1.00
26 1.00
27 1.00
28 1.00
29 1.00
30 1.00
31 1.00

#	copyright 2023 drugdesign.org
#	Creation time:	2024-01-11T10:58:48Z

@<SCITEGIC>ROOT_PROPERTY
Ligand:MaximumNumberOfAtoms
SciTegic.value.IntegerValue
100

@<SCITEGIC>ROOT_PROPERTY
Ligand:HydrogenAtomsCountTowardsMaximum
SciTegic.value.BooleanValue
FALSE

@<TRIPOS>MOLECULE
2_bond_rotate_all.sd
   31    33     0 0 0
SMALL
USER_CHARGES


@<TRIPOS>ATOM
      1 C1            0.000000    0.000000   -2.977000 C.2      1 SUBUNIT    0.0268
      2 N2           -0.702300    1.216400   -2.977000 N.2      1 SUBUNIT   -0.2639
      3 C3           -2.106800    1.216400   -2.977000 C.2      1 SUBUNIT    0.0393
      4 C4           -2.809000    0.000000   -2.977000 C.2      1 SUBUNIT    0.0557
      5 C5           -2.106800   -1.216400   -2.977000 C.2      1 SUBUNIT   -0.0466
      6 C6           -0.702200   -1.216400   -2.977000 C.2      1 SUBUNIT   -0.0430
      7 H7            1.103400    0.000000   -2.977000 H        1 SUBUNIT    0.0840
      8 H8           -2.658500    2.172000   -2.977000 H        1 SUBUNIT    0.0848
      9 H9           -2.658500   -2.171900   -2.977000 H        1 SUBUNIT    0.0632
     10 H10          -0.150500   -2.172000   -2.977000 H        1 SUBUNIT    0.0639
     11 C11          -4.137600   -0.014300   -2.977000 C.2      1 SUBUNIT    0.2487
     12 N12          -4.802000   -1.218200   -2.977000 N.am     1 SUBUNIT   -0.2816
     13 O13          -4.757800    1.040500   -2.977000 O.2      1 SUBUNIT   -0.2715
     14 H14          -4.185400   -2.029400   -2.977000 H        1 SUBUNIT    0.1560
     15 C15          -6.115900   -1.235100   -2.977000 C.2      1 SUBUNIT    0.0291
     16 C16          -6.841700   -0.196000   -2.371800 C.2      1 SUBUNIT   -0.0552
     17 C17          -8.198500   -2.330600   -3.594000 C.2      1 SUBUNIT   -0.0749
     18 C18          -6.794200   -2.302400   -3.588100 C.2      1 SUBUNIT   -0.0444
     19 H19          -6.308700    0.642500   -1.891700 H        1 SUBUNIT    0.0602
     20 H20          -8.731500   -3.168900   -4.074000 H        1 SUBUNIT    0.0583
     21 H21          -6.224000   -3.118600   -4.063600 H        1 SUBUNIT    0.0639
     22 C22         -10.276600   -1.344400   -3.009300 C.2      1 SUBUNIT   -0.0756
     23 C23         -11.002500   -0.305300   -2.404000 C.2      1 SUBUNIT   -0.0517
     24 C24         -10.324100    0.761900   -1.792900 C.2      1 SUBUNIT    0.0138
     25 C25          -8.919900    0.790100   -1.787100 C.2      1 SUBUNIT   -0.0624
     26 C26          -8.194000   -0.248900   -2.392300 C.3      1 SUBUNIT    0.0480
     27 C27          -8.872400   -1.316200   -3.003400 C.3      1 SUBUNIT    0.0452
     28 H28         -10.809600   -2.182800   -3.489400 H        1 SUBUNIT    0.0583
     29 H29         -12.105800   -0.327600   -2.408700 H        1 SUBUNIT    0.0631
     30 Br30        -11.320800    2.188600   -0.962000 Br       1 SUBUNIT   -0.0512
     31 H31          -8.387000    1.628600   -1.307000 H        1 SUBUNIT    0.0594
@<TRIPOS>BOND
     1    1    2 2
     2    1    6 1
     3    1    7 1
     4    2    3 1
     5    3    4 2
     6    3    8 1
     7    4    5 1
     8    4   11 1
     9    5    6 2
    10    5    9 1
    11    6   10 1
    12   11   12 1
    13   11   13 2
    14   12   14 1
    15   12   15 1
    16   15   16 2
    17   15   18 1
    18   16   26 1
    19   16   19 1
    20   17   27 1
    21   17   18 2
    22   17   20 1
    23   18   21 1
    24   22   23 2
    25   22   27 1
    26   22   28 1
    27   23   24 1
    28   23   29 1
    29   24   25 2
    30   24   30 1
    31   25   26 1
    32   25   31 1
    33   26   27 1
@<SCITEGIC>ATOM_PROPERTY
Formal Charge
SciTegic.value.StringValue
1 0
2 0
3 0
4 0
5 0
6 0
7 0
8 0
9 0
10 0
11 0
12 0
13 0
14 0
15 0
16 0
17 0
18 0
19 0
20 0
21 0
22 0
23 0
24 0
25 0
26 0
27 0
28 0
29 0
30 0
31 0

@<SCITEGIC>ATOM_PROPERTY
pdb_tempFactor
SciTegic.value.DoubleValue
1 0.00
2 0.00
3 0.00
4 0.00
5 0.00
6 0.00
7 0.00
8 0.00
9 0.00
10 0.00
11 0.00
12 0.00
13 0.00
14 0.00
15 0.00
16 0.00
17 0.00
18 0.00
19 0.00
20 0.00
21 0.00
22 0.00
23 0.00
24 0.00
25 0.00
26 0.00
27 0.00
28 0.00
29 0.00
30 0.00
31 0.00

@<SCITEGIC>ATOM_PROPERTY
pdb_occupancy
SciTegic.value.DoubleValue
1 1.00
2 1.00
3 1.00
4 1.00
5 1.00
6 1.00
7 1.00
8 1.00
9 1.00
10 1.00
11 1.00
12 1.00
13 1.00
14 1.00
15 1.00
16 1.00
17 1.00
18 1.00
19 1.00
20 1.00
21 1.00
22 1.00
23 1.00
24 1.00
25 1.00
26 1.00
27 1.00
28 1.00
29 1.00
30 1.00
31 1.00

#	copyright 2023 drugdesign.org
#	Creation time:	2024-01-11T10:58:48Z

@<SCITEGIC>ROOT_PROPERTY
Ligand:MaximumNumberOfAtoms
SciTegic.value.IntegerValue
100

@<SCITEGIC>ROOT_PROPERTY
Ligand:HydrogenAtomsCountTowardsMaximum
SciTegic.value.BooleanValue
FALSE

@<TRIPOS>MOLECULE
2_bond_rotate_all.sd
   31    33     0 0 0
SMALL
USER_CHARGES


@<TRIPOS>ATOM
      1 C1            0.000000    0.000000   -2.977000 C.2      1 SUBUNIT    0.0268
      2 N2           -0.702300    1.216400   -2.977000 N.2      1 SUBUNIT   -0.2639
      3 C3           -2.106800    1.216400   -2.977000 C.2      1 SUBUNIT    0.0393
      4 C4           -2.809000    0.000000   -2.977000 C.2      1 SUBUNIT    0.0557
      5 C5           -2.106800   -1.216400   -2.977000 C.2      1 SUBUNIT   -0.0466
      6 C6           -0.702200   -1.216400   -2.977000 C.2      1 SUBUNIT   -0.0430
      7 H7            1.103400    0.000000   -2.977000 H        1 SUBUNIT    0.0840
      8 H8           -2.658500    2.172000   -2.977000 H        1 SUBUNIT    0.0848
      9 H9           -2.658500   -2.171900   -2.977000 H        1 SUBUNIT    0.0632
     10 H10          -0.150500   -2.172000   -2.977000 H        1 SUBUNIT    0.0639
     11 C11          -4.137600   -0.014300   -2.977000 C.2      1 SUBUNIT    0.2487
     12 N12          -4.803800   -1.057900   -2.378600 N.am     1 SUBUNIT   -0.2816
     13 O13          -4.756300    0.898300   -3.507700 O.2      1 SUBUNIT   -0.2715
     14 H14          -4.188300   -1.759500   -1.969800 H        1 SUBUNIT    0.1560
     15 C15          -6.117600   -1.074400   -2.377300 C.2      1 SUBUNIT    0.0291
     16 C16          -6.843800   -0.035100   -2.981800 C.2      1 SUBUNIT   -0.0552
     17 C17          -8.199900   -2.169300   -1.758100 C.2      1 SUBUNIT   -0.0749
     18 C18          -6.795600   -2.141500   -1.765400 C.2      1 SUBUNIT   -0.0444
     19 H19          -6.311000    0.803200   -3.462400 H        1 SUBUNIT    0.0602
     20 H20          -8.732600   -3.007500   -1.277500 H        1 SUBUNIT    0.0583
     21 H21          -6.225100   -2.957900   -1.290500 H        1 SUBUNIT    0.0639
     22 C22         -10.278400   -1.182500   -2.340700 C.2      1 SUBUNIT   -0.0756
     23 C23         -11.004600   -0.143300   -2.945200 C.2      1 SUBUNIT   -0.0517
     24 C24         -10.326500    0.923800   -3.557000 C.2      1 SUBUNIT    0.0138
     25 C25          -8.922300    0.951600   -3.564300 C.2      1 SUBUNIT   -0.0624
     26 C26          -8.196000   -0.087600   -2.959800 C.3      1 SUBUNIT    0.0480
     27 C27          -8.874100   -1.154700   -2.348000 C.3      1 SUBUNIT    0.0452
     28 H28         -10.811000   -2.020800   -1.860000 H        1 SUBUNIT    0.0583
     29 H29         -12.107800   -0.165200   -2.939300 H        1 SUBUNIT    0.0631
     30 Br30        -11.323700    2.350700   -4.386900 Br       1 SUBUNIT   -0.0512
     31 H31          -8.389600    1.789800   -4.044900 H        1 SUBUNIT    0.0594
@<TRIPOS>BOND
     1    1    2 2
     2    1    6 1
     3    1    7 1
     4    2    3 1
     5    3    4 2
     6    3    8 1
     7    4    5 1
     8    4   11 1
     9    5    6 2
    10    5    9 1
    11    6   10 1
    12   11   12 1
    13   11   13 2
    14   12   14 1
    15   12   15 1
    16   15   16 2
    17   15   18 1
    18   16   26 1
    19   16   19 1
    20   17   27 1
    21   17   18 2
    22   17   20 1
    23   18   21 1
    24   22   23 2
    25   22   27 1
    26   22   28 1
    27   23   24 1
    28   23   29 1
    29   24   25 2
    30   24   30 1
    31   25   26 1
    32   25   31 1
    33   26   27 1
@<SCITEGIC>ATOM_PROPERTY
Formal Charge
SciTegic.value.StringValue
1 0
2 0
3 0
4 0
5 0
6 0
7 0
8 0
9 0
10 0
11 0
12 0
13 0
14 0
15 0
16 0
17 0
18 0
19 0
20 0
21 0
22 0
23 0
24 0
25 0
26 0
27 0
28 0
29 0
30 0
31 0

@<SCITEGIC>ATOM_PROPERTY
pdb_tempFactor
SciTegic.value.DoubleValue
1 0.00
2 0.00
3 0.00
4 0.00
5 0.00
6 0.00
7 0.00
8 0.00
9 0.00
10 0.00
11 0.00
12 0.00
13 0.00
14 0.00
15 0.00
16 0.00
17 0.00
18 0.00
19 0.00
20 0.00
21 0.00
22 0.00
23 0.00
24 0.00
25 0.00
26 0.00
27 0.00
28 0.00
29 0.00
30 0.00
31 0.00

@<SCITEGIC>ATOM_PROPERTY
pdb_occupancy
SciTegic.value.DoubleValue
1 1.00
2 1.00
3 1.00
4 1.00
5 1.00
6 1.00
7 1.00
8 1.00
9 1.00
10 1.00
11 1.00
12 1.00
13 1.00
14 1.00
15 1.00
16 1.00
17 1.00
18 1.00
19 1.00
20 1.00
21 1.00
22 1.00
23 1.00
24 1.00
25 1.00
26 1.00
27 1.00
28 1.00
29 1.00
30 1.00
31 1.00

#	copyright 2023 drugdesign.org
#	Creation time:	2024-01-11T10:58:48Z

@<SCITEGIC>ROOT_PROPERTY
Ligand:MaximumNumberOfAtoms
SciTegic.value.IntegerValue
100

@<SCITEGIC>ROOT_PROPERTY
Ligand:HydrogenAtomsCountTowardsMaximum
SciTegic.value.BooleanValue
FALSE

@<TRIPOS>MOLECULE
2_bond_rotate_all.sd
   31    33     0 0 0
SMALL
USER_CHARGES


@<TRIPOS>ATOM
      1 C1            0.000000    0.000000   -2.977000 C.2      1 SUBUNIT    0.0268
      2 N2           -0.702300    1.216400   -2.977000 N.2      1 SUBUNIT   -0.2639
      3 C3           -2.106800    1.216400   -2.977000 C.2      1 SUBUNIT    0.0393
      4 C4           -2.809000    0.000000   -2.977000 C.2      1 SUBUNIT    0.0557
      5 C5           -2.106800   -1.216400   -2.977000 C.2      1 SUBUNIT   -0.0466
      6 C6           -0.702200   -1.216400   -2.977000 C.2      1 SUBUNIT   -0.0430
      7 H7            1.103400    0.000000   -2.977000 H        1 SUBUNIT    0.0840
      8 H8           -2.658500    2.172000   -2.977000 H        1 SUBUNIT    0.0848
      9 H9           -2.658500   -2.171900   -2.977000 H        1 SUBUNIT    0.0632
     10 H10          -0.150500   -2.172000   -2.977000 H        1 SUBUNIT    0.0639
     11 C11          -4.137600   -0.014300   -2.977000 C.2      1 SUBUNIT    0.2487
     12 N12          -4.803800   -1.057900   -2.378600 N.am     1 SUBUNIT   -0.2816
     13 O13          -4.756300    0.898300   -3.507700 O.2      1 SUBUNIT   -0.2715
     14 H14          -4.188300   -1.759500   -1.969800 H        1 SUBUNIT    0.1560
     15 C15          -6.117600   -1.074400   -2.377300 C.2      1 SUBUNIT    0.0291
     16 C16          -6.838700   -0.477600   -3.424500 C.2      1 SUBUNIT   -0.0552
     17 C17          -8.205100   -1.718200   -1.306700 C.2      1 SUBUNIT   -0.0749
     18 C18          -6.800700   -1.694600   -1.318400 C.2      1 SUBUNIT   -0.0444
     19 H19          -6.301900    0.009600   -4.256400 H        1 SUBUNIT    0.0602
     20 H20          -8.741800   -2.205400   -0.474900 H        1 SUBUNIT    0.0583
     21 H21          -6.234300   -2.163400   -0.495600 H        1 SUBUNIT    0.0639
     22 C22         -10.278600   -1.158900   -2.317000 C.2      1 SUBUNIT   -0.0756
     23 C23         -10.999700   -0.562200   -3.364300 C.2      1 SUBUNIT   -0.0517
     24 C24         -10.316600    0.058000   -4.423200 C.2      1 SUBUNIT    0.0138
     25 C25          -8.912300    0.081500   -4.434800 C.2      1 SUBUNIT   -0.0624
     26 C26          -8.191100   -0.515100   -3.387600 C.3      1 SUBUNIT    0.0480
     27 C27          -8.874300   -1.135400   -2.328700 C.3      1 SUBUNIT    0.0452
     28 H28         -10.815300   -1.646200   -1.485200 H        1 SUBUNIT    0.0583
     29 H29         -12.103000   -0.580700   -3.355100 H        1 SUBUNIT    0.0631
     30 Br30        -11.306700    0.877400   -5.861000 Br       1 SUBUNIT   -0.0512
     31 H31          -8.375600    0.568800   -5.266700 H        1 SUBUNIT    0.0594
@<TRIPOS>BOND
     1    1    2 2
     2    1    6 1
     3    1    7 1
     4    2    3 1
     5    3    4 2
     6    3    8 1
     7    4    5 1
     8    4   11 1
     9    5    6 2
    10    5    9 1
    11    6   10 1
    12   11   12 1
    13   11   13 2
    14   12   14 1
    15   12   15 1
    16   15   16 2
    17   15   18 1
    18   16   26 1
    19   16   19 1
    20   17   27 1
    21   17   18 2
    22   17   20 1
    23   18   21 1
    24   22   23 2
    25   22   27 1
    26   22   28 1
    27   23   24 1
    28   23   29 1
    29   24   25 2
    30   24   30 1
    31   25   26 1
    32   25   31 1
    33   26   27 1
@<SCITEGIC>ATOM_PROPERTY
Formal Charge
SciTegic.value.StringValue
1 0
2 0
3 0
4 0
5 0
6 0
7 0
8 0
9 0
10 0
11 0
12 0
13 0
14 0
15 0
16 0
17 0
18 0
19 0
20 0
21 0
22 0
23 0
24 0
25 0
26 0
27 0
28 0
29 0
30 0
31 0

@<SCITEGIC>ATOM_PROPERTY
pdb_tempFactor
SciTegic.value.DoubleValue
1 0.00
2 0.00
3 0.00
4 0.00
5 0.00
6 0.00
7 0.00
8 0.00
9 0.00
10 0.00
11 0.00
12 0.00
13 0.00
14 0.00
15 0.00
16 0.00
17 0.00
18 0.00
19 0.00
20 0.00
21 0.00
22 0.00
23 0.00
24 0.00
25 0.00
26 0.00
27 0.00
28 0.00
29 0.00
30 0.00
31 0.00

@<SCITEGIC>ATOM_PROPERTY
pdb_occupancy
SciTegic.value.DoubleValue
1 1.00
2 1.00
3 1.00
4 1.00
5 1.00
6 1.00
7 1.00
8 1.00
9 1.00
10 1.00
11 1.00
12 1.00
13 1.00
14 1.00
15 1.00
16 1.00
17 1.00
18 1.00
19 1.00
20 1.00
21 1.00
22 1.00
23 1.00
24 1.00
25 1.00
26 1.00
27 1.00
28 1.00
29 1.00
30 1.00
31 1.00

#	copyright 2023 drugdesign.org
#	Creation time:	2024-01-11T10:58:48Z

@<SCITEGIC>ROOT_PROPERTY
Ligand:MaximumNumberOfAtoms
SciTegic.value.IntegerValue
100

@<SCITEGIC>ROOT_PROPERTY
Ligand:HydrogenAtomsCountTowardsMaximum
SciTegic.value.BooleanValue
FALSE

@<TRIPOS>MOLECULE
2_bond_rotate_all.sd
   31    33     0 0 0
SMALL
USER_CHARGES


@<TRIPOS>ATOM
      1 C1            0.000000    0.000000   -2.977000 C.2      1 SUBUNIT    0.0268
      2 N2           -0.702300    1.216400   -2.977000 N.2      1 SUBUNIT   -0.2639
      3 C3           -2.106800    1.216400   -2.977000 C.2      1 SUBUNIT    0.0393
      4 C4           -2.809000    0.000000   -2.977000 C.2      1 SUBUNIT    0.0557
      5 C5           -2.106800   -1.216400   -2.977000 C.2      1 SUBUNIT   -0.0466
      6 C6           -0.702200   -1.216400   -2.977000 C.2      1 SUBUNIT   -0.0430
      7 H7            1.103400    0.000000   -2.977000 H        1 SUBUNIT    0.0840
      8 H8           -2.658500    2.172000   -2.977000 H        1 SUBUNIT    0.0848
      9 H9           -2.658500   -2.171900   -2.977000 H        1 SUBUNIT    0.0632
     10 H10          -0.150500   -2.172000   -2.977000 H        1 SUBUNIT    0.0639
     11 C11          -4.137600   -0.014300   -2.977000 C.2      1 SUBUNIT    0.2487
     12 N12          -4.803800   -1.057900   -2.378600 N.am     1 SUBUNIT   -0.2816
     13 O13          -4.756300    0.898300   -3.507700 O.2      1 SUBUNIT   -0.2715
     14 H14          -4.188300   -1.759500   -1.969800 H        1 SUBUNIT    0.1560
     15 C15          -6.117600   -1.074400   -2.377300 C.2      1 SUBUNIT    0.0291
     16 C16          -6.831300   -1.083300   -3.587000 C.2      1 SUBUNIT   -0.0552
     17 C17          -8.212700   -1.100700   -1.141100 C.2      1 SUBUNIT   -0.0749
     18 C18          -6.808300   -1.083100   -1.154300 C.2      1 SUBUNIT   -0.0444
     19 H19          -6.288600   -1.076500   -4.547800 H        1 SUBUNIT    0.0602
     20 H20          -8.755300   -1.107500   -0.180400 H        1 SUBUNIT    0.0583
     21 H21          -6.247600   -1.076000   -0.203900 H        1 SUBUNIT    0.0639
     22 C22         -10.279000   -1.126600   -2.308400 C.2      1 SUBUNIT   -0.0756
     23 C23         -10.992700   -1.135600   -3.518100 C.2      1 SUBUNIT   -0.0517
     24 C24         -10.302000   -1.126900   -4.741000 C.2      1 SUBUNIT    0.0138
     25 C25          -8.897700   -1.109300   -4.754200 C.2      1 SUBUNIT   -0.0624
     26 C26          -8.183900   -1.100300   -3.544600 C.3      1 SUBUNIT    0.0480
     27 C27          -8.874700   -1.109000   -2.321600 C.3      1 SUBUNIT    0.0452
     28 H28         -10.821600   -1.133400   -1.347600 H        1 SUBUNIT    0.0583
     29 H29         -12.096000   -1.149400   -3.507600 H        1 SUBUNIT    0.0631
     30 Br30        -11.282000   -1.139200   -6.402000 Br       1 SUBUNIT   -0.0512
     31 H31          -8.355100   -1.102500   -5.714900 H        1 SUBUNIT    0.0594
@<TRIPOS>BOND
     1    1    2 2
     2    1    6 1
     3    1    7 1
     4    2    3 1
     5    3    4 2
     6    3    8 1
     7    4    5 1
     8    4   11 1
     9    5    6 2
    10    5    9 1
    11    6   10 1
    12   11   12 1
    13   11   13 2
    14   12   14 1
    15   12   15 1
    16   15   16 2
    17   15   18 1
    18   16   26 1
    19   16   19 1
    20   17   27 1
    21   17   18 2
    22   17   20 1
    23   18   21 1
    24   22   23 2
    25   22   27 1
    26   22   28 1
    27   23   24 1
    28   23   29 1
    29   24   25 2
    30   24   30 1
    31   25   26 1
    32   25   31 1
    33   26   27 1
@<SCITEGIC>ATOM_PROPERTY
Formal Charge
SciTegic.value.StringValue
1 0
2 0
3 0
4 0
5 0
6 0
7 0
8 0
9 0
10 0
11 0
12 0
13 0
14 0
15 0
16 0
17 0
18 0
19 0
20 0
21 0
22 0
23 0
24 0
25 0
26 0
27 0
28 0
29 0
30 0
31 0

@<SCITEGIC>ATOM_PROPERTY
pdb_tempFactor
SciTegic.value.DoubleValue
1 0.00
2 0.00
3 0.00
4 0.00
5 0.00
6 0.00
7 0.00
8 0.00
9 0.00
10 0.00
11 0.00
12 0.00
13 0.00
14 0.00
15 0.00
16 0.00
17 0.00
18 0.00
19 0.00
20 0.00
21 0.00
22 0.00
23 0.00
24 0.00
25 0.00
26 0.00
27 0.00
28 0.00
29 0.00
30 0.00
31 0.00

@<SCITEGIC>ATOM_PROPERTY
pdb_occupancy
SciTegic.value.DoubleValue
1 1.00
2 1.00
3 1.00
4 1.00
5 1.00
6 1.00
7 1.00
8 1.00
9 1.00
10 1.00
11 1.00
12 1.00
13 1.00
14 1.00
15 1.00
16 1.00
17 1.00
18 1.00
19 1.00
20 1.00
21 1.00
22 1.00
23 1.00
24 1.00
25 1.00
26 1.00
27 1.00
28 1.00
29 1.00
30 1.00
31 1.00

#	copyright 2023 drugdesign.org
#	Creation time:	2024-01-11T10:58:48Z

@<SCITEGIC>ROOT_PROPERTY
Ligand:MaximumNumberOfAtoms
SciTegic.value.IntegerValue
100

@<SCITEGIC>ROOT_PROPERTY
Ligand:HydrogenAtomsCountTowardsMaximum
SciTegic.value.BooleanValue
FALSE

@<TRIPOS>MOLECULE
2_bond_rotate_all.sd
   31    33     0 0 0
SMALL
USER_CHARGES


@<TRIPOS>ATOM
      1 C1            0.000000    0.000000   -2.977000 C.2      1 SUBUNIT    0.0268
      2 N2           -0.702300    1.216400   -2.977000 N.2      1 SUBUNIT   -0.2639
      3 C3           -2.106800    1.216400   -2.977000 C.2      1 SUBUNIT    0.0393
      4 C4           -2.809000    0.000000   -2.977000 C.2      1 SUBUNIT    0.0557
      5 C5           -2.106800   -1.216400   -2.977000 C.2      1 SUBUNIT   -0.0466
      6 C6           -0.702200   -1.216400   -2.977000 C.2      1 SUBUNIT   -0.0430
      7 H7            1.103400    0.000000   -2.977000 H        1 SUBUNIT    0.0840
      8 H8           -2.658500    2.172000   -2.977000 H        1 SUBUNIT    0.0848
      9 H9           -2.658500   -2.171900   -2.977000 H        1 SUBUNIT    0.0632
     10 H10          -0.150500   -2.172000   -2.977000 H        1 SUBUNIT    0.0639
     11 C11          -4.137600   -0.014300   -2.977000 C.2      1 SUBUNIT    0.2487
     12 N12          -4.803800   -1.057900   -2.378600 N.am     1 SUBUNIT   -0.2816
     13 O13          -4.756300    0.898300   -3.507700 O.2      1 SUBUNIT   -0.2715
     14 H14          -4.188300   -1.759500   -1.969800 H        1 SUBUNIT    0.1560
     15 C15          -6.117600   -1.074400   -2.377300 C.2      1 SUBUNIT    0.0291
     16 C16          -6.823500   -1.688500   -3.424800 C.2      1 SUBUNIT   -0.0552
     17 C17          -8.220600   -0.483700   -1.306400 C.2      1 SUBUNIT   -0.0749
     18 C18          -6.816100   -0.472000   -1.318100 C.2      1 SUBUNIT   -0.0444
     19 H19          -6.274600   -2.161800   -4.256900 H        1 SUBUNIT    0.0602
     20 H20          -8.769400   -0.010500   -0.474400 H        1 SUBUNIT    0.0583
     21 H21          -6.261600    0.010500   -0.495100 H        1 SUBUNIT    0.0639
     22 C22         -10.279400   -1.094300   -2.317000 C.2      1 SUBUNIT   -0.0756
     23 C23         -10.985400   -1.708500   -3.364600 C.2      1 SUBUNIT   -0.0517
     24 C24         -10.286800   -2.310800   -4.423700 C.2      1 SUBUNIT    0.0138
     25 C25          -8.882400   -2.299100   -4.435400 C.2      1 SUBUNIT   -0.0624
     26 C26          -8.176400   -1.685000   -3.387900 C.3      1 SUBUNIT    0.0480
     27 C27          -8.875000   -1.082600   -2.328600 C.3      1 SUBUNIT    0.0452
     28 H28         -10.828200   -0.621100   -1.484900 H        1 SUBUNIT    0.0583
     29 H29         -12.088800   -1.717600   -3.355300 H        1 SUBUNIT    0.0631
     30 Br30        -11.256100   -3.154100   -5.862000 Br       1 SUBUNIT   -0.0512
     31 H31          -8.333600   -2.772300   -5.267500 H        1 SUBUNIT    0.0594
@<TRIPOS>BOND
     1    1    2 2
     2    1    6 1
     3    1    7 1
     4    2    3 1
     5    3    4 2
     6    3    8 1
     7    4    5 1
     8    4   11 1
     9    5    6 2
    10    5    9 1
    11    6   10 1
    12   11   12 1
    13   11   13 2
    14   12   14 1
    15   12   15 1
    16   15   16 2
    17   15   18 1
    18   16   26 1
    19   16   19 1
    20   17   27 1
    21   17   18 2
    22   17   20 1
    23   18   21 1
    24   22   23 2
    25   22   27 1
    26   22   28 1
    27   23   24 1
    28   23   29 1
    29   24   25 2
    30   24   30 1
    31   25   26 1
    32   25   31 1
    33   26   27 1
@<SCITEGIC>ATOM_PROPERTY
Formal Charge
SciTegic.value.StringValue
1 0
2 0
3 0
4 0
5 0
6 0
7 0
8 0
9 0
10 0
11 0
12 0
13 0
14 0
15 0
16 0
17 0
18 0
19 0
20 0
21 0
22 0
23 0
24 0
25 0
26 0
27 0
28 0
29 0
30 0
31 0

@<SCITEGIC>ATOM_PROPERTY
pdb_tempFactor
SciTegic.value.DoubleValue
1 0.00
2 0.00
3 0.00
4 0.00
5 0.00
6 0.00
7 0.00
8 0.00
9 0.00
10 0.00
11 0.00
12 0.00
13 0.00
14 0.00
15 0.00
16 0.00
17 0.00
18 0.00
19 0.00
20 0.00
21 0.00
22 0.00
23 0.00
24 0.00
25 0.00
26 0.00
27 0.00
28 0.00
29 0.00
30 0.00
31 0.00

@<SCITEGIC>ATOM_PROPERTY
pdb_occupancy
SciTegic.value.DoubleValue
1 1.00
2 1.00
3 1.00
4 1.00
5 1.00
6 1.00
7 1.00
8 1.00
9 1.00
10 1.00
11 1.00
12 1.00
13 1.00
14 1.00
15 1.00
16 1.00
17 1.00
18 1.00
19 1.00
20 1.00
21 1.00
22 1.00
23 1.00
24 1.00
25 1.00
26 1.00
27 1.00
28 1.00
29 1.00
30 1.00
31 1.00

#	copyright 2023 drugdesign.org
#	Creation time:	2024-01-11T10:58:48Z

@<SCITEGIC>ROOT_PROPERTY
Ligand:MaximumNumberOfAtoms
SciTegic.value.IntegerValue
100

@<SCITEGIC>ROOT_PROPERTY
Ligand:HydrogenAtomsCountTowardsMaximum
SciTegic.value.BooleanValue
FALSE

@<TRIPOS>MOLECULE
2_bond_rotate_all.sd
   31    33     0 0 0
SMALL
USER_CHARGES


@<TRIPOS>ATOM
      1 C1            0.000000    0.000000   -2.977000 C.2      1 SUBUNIT    0.0268
      2 N2           -0.702300    1.216400   -2.977000 N.2      1 SUBUNIT   -0.2639
      3 C3           -2.106800    1.216400   -2.977000 C.2      1 SUBUNIT    0.0393
      4 C4           -2.809000    0.000000   -2.977000 C.2      1 SUBUNIT    0.0557
      5 C5           -2.106800   -1.216400   -2.977000 C.2      1 SUBUNIT   -0.0466
      6 C6           -0.702200   -1.216400   -2.977000 C.2      1 SUBUNIT   -0.0430
      7 H7            1.103400    0.000000   -2.977000 H        1 SUBUNIT    0.0840
      8 H8           -2.658500    2.172000   -2.977000 H        1 SUBUNIT    0.0848
      9 H9           -2.658500   -2.171900   -2.977000 H        1 SUBUNIT    0.0632
     10 H10          -0.150500   -2.172000   -2.977000 H        1 SUBUNIT    0.0639
     11 C11          -4.137600   -0.014300   -2.977000 C.2      1 SUBUNIT    0.2487
     12 N12          -4.803800   -1.057900   -2.378600 N.am     1 SUBUNIT   -0.2816
     13 O13          -4.756300    0.898300   -3.507700 O.2      1 SUBUNIT   -0.2715
     14 H14          -4.188300   -1.759500   -1.969800 H        1 SUBUNIT    0.1560
     15 C15          -6.117600   -1.074400   -2.377300 C.2      1 SUBUNIT    0.0291
     16 C16          -6.817500   -2.131500   -2.981800 C.2      1 SUBUNIT   -0.0552
     17 C17          -8.226700   -0.032100   -1.758100 C.2      1 SUBUNIT   -0.0749
     18 C18          -6.822200   -0.024600   -1.765400 C.2      1 SUBUNIT   -0.0444
     19 H19          -6.263800   -2.956200   -3.462400 H        1 SUBUNIT    0.0602
     20 H20          -8.780300    0.792500   -1.277500 H        1 SUBUNIT    0.0583
     21 H21          -6.272400    0.805900   -1.290500 H        1 SUBUNIT    0.0639
     22 C22         -10.279800   -1.070700   -2.340700 C.2      1 SUBUNIT   -0.0756
     23 C23         -10.979700   -2.127900   -2.945100 C.2      1 SUBUNIT   -0.0517
     24 C24         -10.275100   -3.177500   -3.557000 C.2      1 SUBUNIT    0.0138
     25 C25          -8.870600   -3.170100   -3.564300 C.2      1 SUBUNIT   -0.0624
     26 C26          -8.170600   -2.113000   -2.959800 C.3      1 SUBUNIT    0.0480
     27 C27          -8.875300   -1.063200   -2.348000 C.3      1 SUBUNIT    0.0452
     28 H28         -10.833300   -0.246000   -1.860000 H        1 SUBUNIT    0.0583
     29 H29         -12.083100   -2.133600   -2.939300 H        1 SUBUNIT    0.0631
     30 Br30        -11.236100   -4.629000   -4.386900 Br       1 SUBUNIT   -0.0512
     31 H31          -8.317000   -3.994700   -4.044900 H        1 SUBUNIT    0.0594
@<TRIPOS>BOND
     1    1    2 2
     2    1    6 1
     3    1    7 1
     4    2    3 1
     5    3    4 2
     6    3    8 1
     7    4    5 1
     8    4   11 1
     9    5    6 2
    10    5    9 1
    11    6   10 1
    12   11   12 1
    13   11   13 2
    14   12   14 1
    15   12   15 1
    16   15   16 2
    17   15   18 1
    18   16   26 1
    19   16   19 1
    20   17   27 1
    21   17   18 2
    22   17   20 1
    23   18   21 1
    24   22   23 2
    25   22   27 1
    26   22   28 1
    27   23   24 1
    28   23   29 1
    29   24   25 2
    30   24   30 1
    31   25   26 1
    32   25   31 1
    33   26   27 1
@<SCITEGIC>ATOM_PROPERTY
Formal Charge
SciTegic.value.StringValue
1 0
2 0
3 0
4 0
5 0
6 0
7 0
8 0
9 0
10 0
11 0
12 0
13 0
14 0
15 0
16 0
17 0
18 0
19 0
20 0
21 0
22 0
23 0
24 0
25 0
26 0
27 0
28 0
29 0
30 0
31 0

@<SCITEGIC>ATOM_PROPERTY
pdb_tempFactor
SciTegic.value.DoubleValue
1 0.00
2 0.00
3 0.00
4 0.00
5 0.00
6 0.00
7 0.00
8 0.00
9 0.00
10 0.00
11 0.00
12 0.00
13 0.00
14 0.00
15 0.00
16 0.00
17 0.00
18 0.00
19 0.00
20 0.00
21 0.00
22 0.00
23 0.00
24 0.00
25 0.00
26 0.00
27 0.00
28 0.00
29 0.00
30 0.00
31 0.00

@<SCITEGIC>ATOM_PROPERTY
pdb_occupancy
SciTegic.value.DoubleValue
1 1.00
2 1.00
3 1.00
4 1.00
5 1.00
6 1.00
7 1.00
8 1.00
9 1.00
10 1.00
11 1.00
12 1.00
13 1.00
14 1.00
15 1.00
16 1.00
17 1.00
18 1.00
19 1.00
20 1.00
21 1.00
22 1.00
23 1.00
24 1.00
25 1.00
26 1.00
27 1.00
28 1.00
29 1.00
30 1.00
31 1.00

#	copyright 2023 drugdesign.org
#	Creation time:	2024-01-11T10:58:48Z

@<SCITEGIC>ROOT_PROPERTY
Ligand:MaximumNumberOfAtoms
SciTegic.value.IntegerValue
100

@<SCITEGIC>ROOT_PROPERTY
Ligand:HydrogenAtomsCountTowardsMaximum
SciTegic.value.BooleanValue
FALSE

@<TRIPOS>MOLECULE
2_bond_rotate_all.sd
   31    33     0 0 0
SMALL
USER_CHARGES


@<TRIPOS>ATOM
      1 C1            0.000000    0.000000   -2.977000 C.2      1 SUBUNIT    0.0268
      2 N2           -0.702300    1.216400   -2.977000 N.2      1 SUBUNIT   -0.2639
      3 C3           -2.106800    1.216400   -2.977000 C.2      1 SUBUNIT    0.0393
      4 C4           -2.809000    0.000000   -2.977000 C.2      1 SUBUNIT    0.0557
      5 C5           -2.106800   -1.216400   -2.977000 C.2      1 SUBUNIT   -0.0466
      6 C6           -0.702200   -1.216400   -2.977000 C.2      1 SUBUNIT   -0.0430
      7 H7            1.103400    0.000000   -2.977000 H        1 SUBUNIT    0.0840
      8 H8           -2.658500    2.172000   -2.977000 H        1 SUBUNIT    0.0848
      9 H9           -2.658500   -2.171900   -2.977000 H        1 SUBUNIT    0.0632
     10 H10          -0.150500   -2.172000   -2.977000 H        1 SUBUNIT    0.0639
     11 C11          -4.137600   -0.014300   -2.977000 C.2      1 SUBUNIT    0.2487
     12 N12          -4.803800   -1.057900   -2.378600 N.am     1 SUBUNIT   -0.2816
     13 O13          -4.756300    0.898300   -3.507700 O.2      1 SUBUNIT   -0.2715
     14 H14          -4.188300   -1.759500   -1.969800 H        1 SUBUNIT    0.1560
     15 C15          -6.117600   -1.074400   -2.377300 C.2      1 SUBUNIT    0.0291
     16 C16          -6.814800   -2.293700   -2.376500 C.2      1 SUBUNIT   -0.0552
     17 C17          -8.229500    0.133200   -2.375100 C.2      1 SUBUNIT   -0.0749
     18 C18          -6.824900    0.139100   -2.376500 C.2      1 SUBUNIT   -0.0444
     19 H19          -6.259100   -3.247000   -2.377100 H        1 SUBUNIT    0.0602
     20 H20          -8.785100    1.086400   -2.374500 H        1 SUBUNIT    0.0583
     21 H21          -6.277200    1.097000   -2.377100 H        1 SUBUNIT    0.0639
     22 C22         -10.279900   -1.062000   -2.372900 C.2      1 SUBUNIT   -0.0756
     23 C23         -10.977100   -2.281400   -2.372200 C.2      1 SUBUNIT   -0.0517
     24 C24         -10.269800   -3.494800   -2.372900 C.2      1 SUBUNIT    0.0138
     25 C25          -8.865300   -3.488900   -2.374400 C.2      1 SUBUNIT   -0.0624
     26 C26          -8.168000   -2.269600   -2.375100 C.3      1 SUBUNIT    0.0480
     27 C27          -8.875400   -1.056100   -2.374400 C.3      1 SUBUNIT    0.0452
     28 H28         -10.835600   -0.108800   -2.372400 H        1 SUBUNIT    0.0583
     29 H29         -12.080600   -2.285900   -2.371100 H        1 SUBUNIT    0.0631
     30 Br30        -11.227200   -5.168900   -2.371900 Br       1 SUBUNIT   -0.0512
     31 H31          -8.309700   -4.442100   -2.375000 H        1 SUBUNIT    0.0594
@<TRIPOS>BOND
     1    1    2 2
     2    1    6 1
     3    1    7 1
     4    2    3 1
     5    3    4 2
     6    3    8 1
     7    4    5 1
     8    4   11 1
     9    5    6 2
    10    5    9 1
    11    6   10 1
    12   11   12 1
    13   11   13 2
    14   12   14 1
    15   12   15 1
    16   15   16 2
    17   15   18 1
    18   16   26 1
    19   16   19 1
    20   17   27 1
    21   17   18 2
    22   17   20 1
    23   18   21 1
    24   22   23 2
    25   22   27 1
    26   22   28 1
    27   23   24 1
    28   23   29 1
    29   24   25 2
    30   24   30 1
    31   25   26 1
    32   25   31 1
    33   26   27 1
@<SCITEGIC>ATOM_PROPERTY
Formal Charge
SciTegic.value.StringValue
1 0
2 0
3 0
4 0
5 0
6 0
7 0
8 0
9 0
10 0
11 0
12 0
13 0
14 0
15 0
16 0
17 0
18 0
19 0
20 0
21 0
22 0
23 0
24 0
25 0
26 0
27 0
28 0
29 0
30 0
31 0

@<SCITEGIC>ATOM_PROPERTY
pdb_tempFactor
SciTegic.value.DoubleValue
1 0.00
2 0.00
3 0.00
4 0.00
5 0.00
6 0.00
7 0.00
8 0.00
9 0.00
10 0.00
11 0.00
12 0.00
13 0.00
14 0.00
15 0.00
16 0.00
17 0.00
18 0.00
19 0.00
20 0.00
21 0.00
22 0.00
23 0.00
24 0.00
25 0.00
26 0.00
27 0.00
28 0.00
29 0.00
30 0.00
31 0.00

@<SCITEGIC>ATOM_PROPERTY
pdb_occupancy
SciTegic.value.DoubleValue
1 1.00
2 1.00
3 1.00
4 1.00
5 1.00
6 1.00
7 1.00
8 1.00
9 1.00
10 1.00
11 1.00
12 1.00
13 1.00
14 1.00
15 1.00
16 1.00
17 1.00
18 1.00
19 1.00
20 1.00
21 1.00
22 1.00
23 1.00
24 1.00
25 1.00
26 1.00
27 1.00
28 1.00
29 1.00
30 1.00
31 1.00

#	copyright 2023 drugdesign.org
#	Creation time:	2024-01-11T10:58:48Z

@<SCITEGIC>ROOT_PROPERTY
Ligand:MaximumNumberOfAtoms
SciTegic.value.IntegerValue
100

@<SCITEGIC>ROOT_PROPERTY
Ligand:HydrogenAtomsCountTowardsMaximum
SciTegic.value.BooleanValue
FALSE

@<TRIPOS>MOLECULE
2_bond_rotate_all.sd
   31    33     0 0 0
SMALL
USER_CHARGES


@<TRIPOS>ATOM
      1 C1            0.000000    0.000000   -2.977000 C.2      1 SUBUNIT    0.0268
      2 N2           -0.702300    1.216400   -2.977000 N.2      1 SUBUNIT   -0.2639
      3 C3           -2.106800    1.216400   -2.977000 C.2      1 SUBUNIT    0.0393
      4 C4           -2.809000    0.000000   -2.977000 C.2      1 SUBUNIT    0.0557
      5 C5           -2.106800   -1.216400   -2.977000 C.2      1 SUBUNIT   -0.0466
      6 C6           -0.702200   -1.216400   -2.977000 C.2      1 SUBUNIT   -0.0430
      7 H7            1.103400    0.000000   -2.977000 H        1 SUBUNIT    0.0840
      8 H8           -2.658500    2.172000   -2.977000 H        1 SUBUNIT    0.0848
      9 H9           -2.658500   -2.171900   -2.977000 H        1 SUBUNIT    0.0632
     10 H10          -0.150500   -2.172000   -2.977000 H        1 SUBUNIT    0.0639
     11 C11          -4.137600   -0.014300   -2.977000 C.2      1 SUBUNIT    0.2487
     12 N12          -4.803800   -1.057900   -2.378600 N.am     1 SUBUNIT   -0.2816
     13 O13          -4.756300    0.898300   -3.507700 O.2      1 SUBUNIT   -0.2715
     14 H14          -4.188300   -1.759500   -1.969800 H        1 SUBUNIT    0.1560
     15 C15          -6.117600   -1.074400   -2.377300 C.2      1 SUBUNIT    0.0291
     16 C16          -6.816200   -2.131500   -1.771300 C.2      1 SUBUNIT   -0.0552
     17 C17          -8.228000   -0.032100   -2.992100 C.2      1 SUBUNIT   -0.0749
     18 C18          -6.823400   -0.024700   -2.987700 C.2      1 SUBUNIT   -0.0444
     19 H19          -6.261600   -2.956200   -1.291800 H        1 SUBUNIT    0.0602
     20 H20          -8.782600    0.792500   -3.471600 H        1 SUBUNIT    0.0583
     21 H21          -6.274600    0.805800   -3.463700 H        1 SUBUNIT    0.0639
     22 C22         -10.279800   -1.070700   -2.405200 C.2      1 SUBUNIT   -0.0756
     23 C23         -10.978500   -2.127800   -1.799300 C.2      1 SUBUNIT   -0.0517
     24 C24         -10.272600   -3.177500   -1.188900 C.2      1 SUBUNIT    0.0138
     25 C25          -8.868100   -3.170000   -1.184500 C.2      1 SUBUNIT   -0.0624
     26 C26          -8.169400   -2.113000   -1.790400 C.3      1 SUBUNIT    0.0480
     27 C27          -8.875300   -1.063200   -2.400800 C.3      1 SUBUNIT    0.0452
     28 H28         -10.834400   -0.246100   -2.884800 H        1 SUBUNIT    0.0583
     29 H29         -12.081900   -2.133600   -1.802800 H        1 SUBUNIT    0.0631
     30 Br30        -11.231900   -4.629000   -0.356900 Br       1 SUBUNIT   -0.0512
     31 H31          -8.313600   -3.994700   -0.705000 H        1 SUBUNIT    0.0594
@<TRIPOS>BOND
     1    1    2 2
     2    1    6 1
     3    1    7 1
     4    2    3 1
     5    3    4 2
     6    3    8 1
     7    4    5 1
     8    4   11 1
     9    5    6 2
    10    5    9 1
    11    6   10 1
    12   11   12 1
    13   11   13 2
    14   12   14 1
    15   12   15 1
    16   15   16 2
    17   15   18 1
    18   16   26 1
    19   16   19 1
    20   17   27 1
    21   17   18 2
    22   17   20 1
    23   18   21 1
    24   22   23 2
    25   22   27 1
    26   22   28 1
    27   23   24 1
    28   23   29 1
    29   24   25 2
    30   24   30 1
    31   25   26 1
    32   25   31 1
    33   26   27 1
@<SCITEGIC>ATOM_PROPERTY
Formal Charge
SciTegic.value.StringValue
1 0
2 0
3 0
4 0
5 0
6 0
7 0
8 0
9 0
10 0
11 0
12 0
13 0
14 0
15 0
16 0
17 0
18 0
19 0
20 0
21 0
22 0
23 0
24 0
25 0
26 0
27 0
28 0
29 0
30 0
31 0

@<SCITEGIC>ATOM_PROPERTY
pdb_tempFactor
SciTegic.value.DoubleValue
1 0.00
2 0.00
3 0.00
4 0.00
5 0.00
6 0.00
7 0.00
8 0.00
9 0.00
10 0.00
11 0.00
12 0.00
13 0.00
14 0.00
15 0.00
16 0.00
17 0.00
18 0.00
19 0.00
20 0.00
21 0.00
22 0.00
23 0.00
24 0.00
25 0.00
26 0.00
27 0.00
28 0.00
29 0.00
30 0.00
31 0.00

@<SCITEGIC>ATOM_PROPERTY
pdb_occupancy
SciTegic.value.DoubleValue
1 1.00
2 1.00
3 1.00
4 1.00
5 1.00
6 1.00
7 1.00
8 1.00
9 1.00
10 1.00
11 1.00
12 1.00
13 1.00
14 1.00
15 1.00
16 1.00
17 1.00
18 1.00
19 1.00
20 1.00
21 1.00
22 1.00
23 1.00
24 1.00
25 1.00
26 1.00
27 1.00
28 1.00
29 1.00
30 1.00
31 1.00

#	copyright 2023 drugdesign.org
#	Creation time:	2024-01-11T10:58:48Z

@<SCITEGIC>ROOT_PROPERTY
Ligand:MaximumNumberOfAtoms
SciTegic.value.IntegerValue
100

@<SCITEGIC>ROOT_PROPERTY
Ligand:HydrogenAtomsCountTowardsMaximum
SciTegic.value.BooleanValue
FALSE

@<TRIPOS>MOLECULE
2_bond_rotate_all.sd
   31    33     0 0 0
SMALL
USER_CHARGES


@<TRIPOS>ATOM
      1 C1            0.000000    0.000000   -2.977000 C.2      1 SUBUNIT    0.0268
      2 N2           -0.702300    1.216400   -2.977000 N.2      1 SUBUNIT   -0.2639
      3 C3           -2.106800    1.216400   -2.977000 C.2      1 SUBUNIT    0.0393
      4 C4           -2.809000    0.000000   -2.977000 C.2      1 SUBUNIT    0.0557
      5 C5           -2.106800   -1.216400   -2.977000 C.2      1 SUBUNIT   -0.0466
      6 C6           -0.702200   -1.216400   -2.977000 C.2      1 SUBUNIT   -0.0430
      7 H7            1.103400    0.000000   -2.977000 H        1 SUBUNIT    0.0840
      8 H8           -2.658500    2.172000   -2.977000 H        1 SUBUNIT    0.0848
      9 H9           -2.658500   -2.171900   -2.977000 H        1 SUBUNIT    0.0632
     10 H10          -0.150500   -2.172000   -2.977000 H        1 SUBUNIT    0.0639
     11 C11          -4.137600   -0.014300   -2.977000 C.2      1 SUBUNIT    0.2487
     12 N12          -4.803800   -1.057900   -2.378600 N.am     1 SUBUNIT   -0.2816
     13 O13          -4.756300    0.898300   -3.507700 O.2      1 SUBUNIT   -0.2715
     14 H14          -4.188300   -1.759500   -1.969800 H        1 SUBUNIT    0.1560
     15 C15          -6.117600   -1.074400   -2.377300 C.2      1 SUBUNIT    0.0291
     16 C16          -6.821300   -1.688500   -1.328200 C.2      1 SUBUNIT   -0.0552
     17 C17          -8.222800   -0.483700   -3.443800 C.2      1 SUBUNIT   -0.0749
     18 C18          -6.818300   -0.472000   -3.435000 C.2      1 SUBUNIT   -0.0444
     19 H19          -6.270700   -2.161700   -0.497200 H        1 SUBUNIT    0.0602
     20 H20          -8.773300   -0.010600   -4.274700 H        1 SUBUNIT    0.0583
     21 H21          -6.265500    0.010400   -4.259200 H        1 SUBUNIT    0.0639
     22 C22         -10.279500   -1.094300   -2.428900 C.2      1 SUBUNIT   -0.0756
     23 C23         -10.983300   -1.708400   -1.379800 C.2      1 SUBUNIT   -0.0517
     24 C24         -10.282600   -2.310800   -0.322100 C.2      1 SUBUNIT    0.0138
     25 C25          -8.878100   -2.299000   -0.313400 C.2      1 SUBUNIT   -0.0624
     26 C26          -8.174300   -1.685000   -1.362400 C.3      1 SUBUNIT    0.0480
     27 C27          -8.875100   -1.082600   -2.420200 C.3      1 SUBUNIT    0.0452
     28 H28         -10.830000   -0.621100   -3.259800 H        1 SUBUNIT    0.0583
     29 H29         -12.086700   -1.717600   -1.386800 H        1 SUBUNIT    0.0631
     30 Br30        -11.248800   -3.154000    1.118200 Br       1 SUBUNIT   -0.0512
     31 H31          -8.327600   -2.772200    0.517600 H        1 SUBUNIT    0.0594
@<TRIPOS>BOND
     1    1    2 2
     2    1    6 1
     3    1    7 1
     4    2    3 1
     5    3    4 2
     6    3    8 1
     7    4    5 1
     8    4   11 1
     9    5    6 2
    10    5    9 1
    11    6   10 1
    12   11   12 1
    13   11   13 2
    14   12   14 1
    15   12   15 1
    16   15   16 2
    17   15   18 1
    18   16   26 1
    19   16   19 1
    20   17   27 1
    21   17   18 2
    22   17   20 1
    23   18   21 1
    24   22   23 2
    25   22   27 1
    26   22   28 1
    27   23   24 1
    28   23   29 1
    29   24   25 2
    30   24   30 1
    31   25   26 1
    32   25   31 1
    33   26   27 1
@<SCITEGIC>ATOM_PROPERTY
Formal Charge
SciTegic.value.StringValue
1 0
2 0
3 0
4 0
5 0
6 0
7 0
8 0
9 0
10 0
11 0
12 0
13 0
14 0
15 0
16 0
17 0
18 0
19 0
20 0
21 0
22 0
23 0
24 0
25 0
26 0
27 0
28 0
29 0
30 0
31 0

@<SCITEGIC>ATOM_PROPERTY
pdb_tempFactor
SciTegic.value.DoubleValue
1 0.00
2 0.00
3 0.00
4 0.00
5 0.00
6 0.00
7 0.00
8 0.00
9 0.00
10 0.00
11 0.00
12 0.00
13 0.00
14 0.00
15 0.00
16 0.00
17 0.00
18 0.00
19 0.00
20 0.00
21 0.00
22 0.00
23 0.00
24 0.00
25 0.00
26 0.00
27 0.00
28 0.00
29 0.00
30 0.00
31 0.00

@<SCITEGIC>ATOM_PROPERTY
pdb_occupancy
SciTegic.value.DoubleValue
1 1.00
2 1.00
3 1.00
4 1.00
5 1.00
6 1.00
7 1.00
8 1.00
9 1.00
10 1.00
11 1.00
12 1.00
13 1.00
14 1.00
15 1.00
16 1.00
17 1.00
18 1.00
19 1.00
20 1.00
21 1.00
22 1.00
23 1.00
24 1.00
25 1.00
26 1.00
27 1.00
28 1.00
29 1.00
30 1.00
31 1.00

#	copyright 2023 drugdesign.org
#	Creation time:	2024-01-11T10:58:48Z

@<SCITEGIC>ROOT_PROPERTY
Ligand:MaximumNumberOfAtoms
SciTegic.value.IntegerValue
100

@<SCITEGIC>ROOT_PROPERTY
Ligand:HydrogenAtomsCountTowardsMaximum
SciTegic.value.BooleanValue
FALSE

@<TRIPOS>MOLECULE
2_bond_rotate_all.sd
   31    33     0 0 0
SMALL
USER_CHARGES


@<TRIPOS>ATOM
      1 C1            0.000000    0.000000   -2.977000 C.2      1 SUBUNIT    0.0268
      2 N2           -0.702300    1.216400   -2.977000 N.2      1 SUBUNIT   -0.2639
      3 C3           -2.106800    1.216400   -2.977000 C.2      1 SUBUNIT    0.0393
      4 C4           -2.809000    0.000000   -2.977000 C.2      1 SUBUNIT    0.0557
      5 C5           -2.106800   -1.216400   -2.977000 C.2      1 SUBUNIT   -0.0466
      6 C6           -0.702200   -1.216400   -2.977000 C.2      1 SUBUNIT   -0.0430
      7 H7            1.103400    0.000000   -2.977000 H        1 SUBUNIT    0.0840
      8 H8           -2.658500    2.172000   -2.977000 H        1 SUBUNIT    0.0848
      9 H9           -2.658500   -2.171900   -2.977000 H        1 SUBUNIT    0.0632
     10 H10          -0.150500   -2.172000   -2.977000 H        1 SUBUNIT    0.0639
     11 C11          -4.137600   -0.014300   -2.977000 C.2      1 SUBUNIT    0.2487
     12 N12          -4.803800   -1.057900   -2.378600 N.am     1 SUBUNIT   -0.2816
     13 O13          -4.756300    0.898300   -3.507700 O.2      1 SUBUNIT   -0.2715
     14 H14          -4.188300   -1.759500   -1.969800 H        1 SUBUNIT    0.1560
     15 C15          -6.117600   -1.074400   -2.377300 C.2      1 SUBUNIT    0.0291
     16 C16          -6.828800   -1.083300   -1.166100 C.2      1 SUBUNIT   -0.0552
     17 C17          -8.215300   -1.100700   -3.609100 C.2      1 SUBUNIT   -0.0749
     18 C18          -6.810800   -1.083100   -3.598800 C.2      1 SUBUNIT   -0.0444
     19 H19          -6.284000   -1.076500   -0.206400 H        1 SUBUNIT    0.0602
     20 H20          -8.759900   -1.107500   -4.568600 H        1 SUBUNIT    0.0583
     21 H21          -6.252100   -1.076100   -4.550300 H        1 SUBUNIT    0.0639
     22 C22         -10.279200   -1.126600   -2.437500 C.2      1 SUBUNIT   -0.0756
     23 C23         -10.990300   -1.135500   -1.226300 C.2      1 SUBUNIT   -0.0517
     24 C24         -10.297100   -1.126800   -0.004800 C.2      1 SUBUNIT    0.0138
     25 C25          -8.892700   -1.109200    0.005400 C.2      1 SUBUNIT   -0.0624
     26 C26          -8.181500   -1.100300   -1.205700 C.3      1 SUBUNIT    0.0480
     27 C27          -8.874800   -1.109000   -2.427200 C.3      1 SUBUNIT    0.0452
     28 H28         -10.823800   -1.133400   -3.397100 H        1 SUBUNIT    0.0583
     29 H29         -12.093700   -1.149400   -1.234500 H        1 SUBUNIT    0.0631
     30 Br30        -11.273600   -1.139100    1.658100 Br       1 SUBUNIT   -0.0512
     31 H31          -8.348100   -1.102400    0.965000 H        1 SUBUNIT    0.0594
@<TRIPOS>BOND
     1    1    2 2
     2    1    6 1
     3    1    7 1
     4    2    3 1
     5    3    4 2
     6    3    8 1
     7    4    5 1
     8    4   11 1
     9    5    6 2
    10    5    9 1
    11    6   10 1
    12   11   12 1
    13   11   13 2
    14   12   14 1
    15   12   15 1
    16   15   16 2
    17   15   18 1
    18   16   26 1
    19   16   19 1
    20   17   27 1
    21   17   18 2
    22   17   20 1
    23   18   21 1
    24   22   23 2
    25   22   27 1
    26   22   28 1
    27   23   24 1
    28   23   29 1
    29   24   25 2
    30   24   30 1
    31   25   26 1
    32   25   31 1
    33   26   27 1
@<SCITEGIC>ATOM_PROPERTY
Formal Charge
SciTegic.value.StringValue
1 0
2 0
3 0
4 0
5 0
6 0
7 0
8 0
9 0
10 0
11 0
12 0
13 0
14 0
15 0
16 0
17 0
18 0
19 0
20 0
21 0
22 0
23 0
24 0
25 0
26 0
27 0
28 0
29 0
30 0
31 0

@<SCITEGIC>ATOM_PROPERTY
pdb_tempFactor
SciTegic.value.DoubleValue
1 0.00
2 0.00
3 0.00
4 0.00
5 0.00
6 0.00
7 0.00
8 0.00
9 0.00
10 0.00
11 0.00
12 0.00
13 0.00
14 0.00
15 0.00
16 0.00
17 0.00
18 0.00
19 0.00
20 0.00
21 0.00
22 0.00
23 0.00
24 0.00
25 0.00
26 0.00
27 0.00
28 0.00
29 0.00
30 0.00
31 0.00

@<SCITEGIC>ATOM_PROPERTY
pdb_occupancy
SciTegic.value.DoubleValue
1 1.00
2 1.00
3 1.00
4 1.00
5 1.00
6 1.00
7 1.00
8 1.00
9 1.00
10 1.00
11 1.00
12 1.00
13 1.00
14 1.00
15 1.00
16 1.00
17 1.00
18 1.00
19 1.00
20 1.00
21 1.00
22 1.00
23 1.00
24 1.00
25 1.00
26 1.00
27 1.00
28 1.00
29 1.00
30 1.00
31 1.00

#	copyright 2023 drugdesign.org
#	Creation time:	2024-01-11T10:58:48Z

@<SCITEGIC>ROOT_PROPERTY
Ligand:MaximumNumberOfAtoms
SciTegic.value.IntegerValue
100

@<SCITEGIC>ROOT_PROPERTY
Ligand:HydrogenAtomsCountTowardsMaximum
SciTegic.value.BooleanValue
FALSE

@<TRIPOS>MOLECULE
2_bond_rotate_all.sd
   31    33     0 0 0
SMALL
USER_CHARGES


@<TRIPOS>ATOM
      1 C1            0.000000    0.000000   -2.977000 C.2      1 SUBUNIT    0.0268
      2 N2           -0.702300    1.216400   -2.977000 N.2      1 SUBUNIT   -0.2639
      3 C3           -2.106800    1.216400   -2.977000 C.2      1 SUBUNIT    0.0393
      4 C4           -2.809000    0.000000   -2.977000 C.2      1 SUBUNIT    0.0557
      5 C5           -2.106800   -1.216400   -2.977000 C.2      1 SUBUNIT   -0.0466
      6 C6           -0.702200   -1.216400   -2.977000 C.2      1 SUBUNIT   -0.0430
      7 H7            1.103400    0.000000   -2.977000 H        1 SUBUNIT    0.0840
      8 H8           -2.658500    2.172000   -2.977000 H        1 SUBUNIT    0.0848
      9 H9           -2.658500   -2.171900   -2.977000 H        1 SUBUNIT    0.0632
     10 H10          -0.150500   -2.172000   -2.977000 H        1 SUBUNIT    0.0639
     11 C11          -4.137600   -0.014300   -2.977000 C.2      1 SUBUNIT    0.2487
     12 N12          -4.803800   -1.057900   -2.378600 N.am     1 SUBUNIT   -0.2816
     13 O13          -4.756300    0.898300   -3.507700 O.2      1 SUBUNIT   -0.2715
     14 H14          -4.188300   -1.759500   -1.969800 H        1 SUBUNIT    0.1560
     15 C15          -6.117600   -1.074400   -2.377300 C.2      1 SUBUNIT    0.0291
     16 C16          -6.836500   -0.478100   -1.328200 C.2      1 SUBUNIT   -0.0552
     17 C17          -8.207300   -1.717700   -3.443800 C.2      1 SUBUNIT   -0.0749
     18 C18          -6.803000   -1.694200   -3.435100 C.2      1 SUBUNIT   -0.0444
     19 H19          -6.298000    0.008800   -0.497200 H        1 SUBUNIT    0.0602
     20 H20          -8.745800   -2.204500   -4.274700 H        1 SUBUNIT    0.0583
     21 H21          -6.238200   -2.162600   -4.259200 H        1 SUBUNIT    0.0639
     22 C22         -10.278700   -1.158900   -2.428900 C.2      1 SUBUNIT   -0.0756
     23 C23         -10.997700   -0.562600   -1.379800 C.2      1 SUBUNIT   -0.0517
     24 C24         -10.312300    0.057100   -0.322100 C.2      1 SUBUNIT    0.0138
     25 C25          -8.908000    0.080600   -0.313400 C.2      1 SUBUNIT   -0.0624
     26 C26          -8.189000   -0.515600   -1.362400 C.3      1 SUBUNIT    0.0480
     27 C27          -8.874400   -1.135400   -2.420200 C.3      1 SUBUNIT    0.0452
     28 H28         -10.817200   -1.645800   -3.259800 H        1 SUBUNIT    0.0583
     29 H29         -12.101000   -0.581200   -1.386800 H        1 SUBUNIT    0.0631
     30 Br30        -11.299400    0.875800    1.118200 Br       1 SUBUNIT   -0.0512
     31 H31          -8.369500    0.567500    0.517600 H        1 SUBUNIT    0.0594
@<TRIPOS>BOND
     1    1    2 2
     2    1    6 1
     3    1    7 1
     4    2    3 1
     5    3    4 2
     6    3    8 1
     7    4    5 1
     8    4   11 1
     9    5    6 2
    10    5    9 1
    11    6   10 1
    12   11   12 1
    13   11   13 2
    14   12   14 1
    15   12   15 1
    16   15   16 2
    17   15   18 1
    18   16   26 1
    19   16   19 1
    20   17   27 1
    21   17   18 2
    22   17   20 1
    23   18   21 1
    24   22   23 2
    25   22   27 1
    26   22   28 1
    27   23   24 1
    28   23   29 1
    29   24   25 2
    30   24   30 1
    31   25   26 1
    32   25   31 1
    33   26   27 1
@<SCITEGIC>ATOM_PROPERTY
Formal Charge
SciTegic.value.StringValue
1 0
2 0
3 0
4 0
5 0
6 0
7 0
8 0
9 0
10 0
11 0
12 0
13 0
14 0
15 0
16 0
17 0
18 0
19 0
20 0
21 0
22 0
23 0
24 0
25 0
26 0
27 0
28 0
29 0
30 0
31 0

@<SCITEGIC>ATOM_PROPERTY
pdb_tempFactor
SciTegic.value.DoubleValue
1 0.00
2 0.00
3 0.00
4 0.00
5 0.00
6 0.00
7 0.00
8 0.00
9 0.00
10 0.00
11 0.00
12 0.00
13 0.00
14 0.00
15 0.00
16 0.00
17 0.00
18 0.00
19 0.00
20 0.00
21 0.00
22 0.00
23 0.00
24 0.00
25 0.00
26 0.00
27 0.00
28 0.00
29 0.00
30 0.00
31 0.00

@<SCITEGIC>ATOM_PROPERTY
pdb_occupancy
SciTegic.value.DoubleValue
1 1.00
2 1.00
3 1.00
4 1.00
5 1.00
6 1.00
7 1.00
8 1.00
9 1.00
10 1.00
11 1.00
12 1.00
13 1.00
14 1.00
15 1.00
16 1.00
17 1.00
18 1.00
19 1.00
20 1.00
21 1.00
22 1.00
23 1.00
24 1.00
25 1.00
26 1.00
27 1.00
28 1.00
29 1.00
30 1.00
31 1.00

#	copyright 2023 drugdesign.org
#	Creation time:	2024-01-11T10:58:48Z

@<SCITEGIC>ROOT_PROPERTY
Ligand:MaximumNumberOfAtoms
SciTegic.value.IntegerValue
100

@<SCITEGIC>ROOT_PROPERTY
Ligand:HydrogenAtomsCountTowardsMaximum
SciTegic.value.BooleanValue
FALSE

@<TRIPOS>MOLECULE
2_bond_rotate_all.sd
   31    33     0 0 0
SMALL
USER_CHARGES


@<TRIPOS>ATOM
      1 C1            0.000000    0.000000   -2.977000 C.2      1 SUBUNIT    0.0268
      2 N2           -0.702300    1.216400   -2.977000 N.2      1 SUBUNIT   -0.2639
      3 C3           -2.106800    1.216400   -2.977000 C.2      1 SUBUNIT    0.0393
      4 C4           -2.809000    0.000000   -2.977000 C.2      1 SUBUNIT    0.0557
      5 C5           -2.106800   -1.216400   -2.977000 C.2      1 SUBUNIT   -0.0466
      6 C6           -0.702200   -1.216400   -2.977000 C.2      1 SUBUNIT   -0.0430
      7 H7            1.103400    0.000000   -2.977000 H        1 SUBUNIT    0.0840
      8 H8           -2.658500    2.172000   -2.977000 H        1 SUBUNIT    0.0848
      9 H9           -2.658500   -2.171900   -2.977000 H        1 SUBUNIT    0.0632
     10 H10          -0.150500   -2.172000   -2.977000 H        1 SUBUNIT    0.0639
     11 C11          -4.137600   -0.014300   -2.977000 C.2      1 SUBUNIT    0.2487
     12 N12          -4.803800   -1.057900   -2.378600 N.am     1 SUBUNIT   -0.2816
     13 O13          -4.756300    0.898300   -3.507700 O.2      1 SUBUNIT   -0.2715
     14 H14          -4.188300   -1.759500   -1.969800 H        1 SUBUNIT    0.1560
     15 C15          -6.117600   -1.074400   -2.377300 C.2      1 SUBUNIT    0.0291
     16 C16          -6.842600   -0.035100   -1.771300 C.2      1 SUBUNIT   -0.0552
     17 C17          -8.201200   -2.169300   -2.992100 C.2      1 SUBUNIT   -0.0749
     18 C18          -6.796900   -2.141500   -2.987700 C.2      1 SUBUNIT   -0.0444
     19 H19          -6.308800    0.803200   -1.291800 H        1 SUBUNIT    0.0602
     20 H20          -8.734900   -3.007500   -3.471600 H        1 SUBUNIT    0.0583
     21 H21          -6.227400   -2.957900   -3.463700 H        1 SUBUNIT    0.0639
     22 C22         -10.278400   -1.182500   -2.405200 C.2      1 SUBUNIT   -0.0756
     23 C23         -11.003400   -0.143300   -1.799300 C.2      1 SUBUNIT   -0.0517
     24 C24         -10.324100    0.923800   -1.188900 C.2      1 SUBUNIT    0.0138
     25 C25          -8.919800    0.951600   -1.184500 C.2      1 SUBUNIT   -0.0624
     26 C26          -8.194800   -0.087600   -1.790400 C.3      1 SUBUNIT    0.0480
     27 C27          -8.874200   -1.154700   -2.400800 C.3      1 SUBUNIT    0.0452
     28 H28         -10.812100   -2.020800   -2.884800 H        1 SUBUNIT    0.0583
     29 H29         -12.106600   -0.165200   -1.802800 H        1 SUBUNIT    0.0631
     30 Br30        -11.319500    2.350700   -0.356900 Br       1 SUBUNIT   -0.0512
     31 H31          -8.386200    1.789900   -0.705000 H        1 SUBUNIT    0.0594
@<TRIPOS>BOND
     1    1    2 2
     2    1    6 1
     3    1    7 1
     4    2    3 1
     5    3    4 2
     6    3    8 1
     7    4    5 1
     8    4   11 1
     9    5    6 2
    10    5    9 1
    11    6   10 1
    12   11   12 1
    13   11   13 2
    14   12   14 1
    15   12   15 1
    16   15   16 2
    17   15   18 1
    18   16   26 1
    19   16   19 1
    20   17   27 1
    21   17   18 2
    22   17   20 1
    23   18   21 1
    24   22   23 2
    25   22   27 1
    26   22   28 1
    27   23   24 1
    28   23   29 1
    29   24   25 2
    30   24   30 1
    31   25   26 1
    32   25   31 1
    33   26   27 1
@<SCITEGIC>ATOM_PROPERTY
Formal Charge
SciTegic.value.StringValue
1 0
2 0
3 0
4 0
5 0
6 0
7 0
8 0
9 0
10 0
11 0
12 0
13 0
14 0
15 0
16 0
17 0
18 0
19 0
20 0
21 0
22 0
23 0
24 0
25 0
26 0
27 0
28 0
29 0
30 0
31 0

@<SCITEGIC>ATOM_PROPERTY
pdb_tempFactor
SciTegic.value.DoubleValue
1 0.00
2 0.00
3 0.00
4 0.00
5 0.00
6 0.00
7 0.00
8 0.00
9 0.00
10 0.00
11 0.00
12 0.00
13 0.00
14 0.00
15 0.00
16 0.00
17 0.00
18 0.00
19 0.00
20 0.00
21 0.00
22 0.00
23 0.00
24 0.00
25 0.00
26 0.00
27 0.00
28 0.00
29 0.00
30 0.00
31 0.00

@<SCITEGIC>ATOM_PROPERTY
pdb_occupancy
SciTegic.value.DoubleValue
1 1.00
2 1.00
3 1.00
4 1.00
5 1.00
6 1.00
7 1.00
8 1.00
9 1.00
10 1.00
11 1.00
12 1.00
13 1.00
14 1.00
15 1.00
16 1.00
17 1.00
18 1.00
19 1.00
20 1.00
21 1.00
22 1.00
23 1.00
24 1.00
25 1.00
26 1.00
27 1.00
28 1.00
29 1.00
30 1.00
31 1.00

#	copyright 2023 drugdesign.org
#	Creation time:	2024-01-11T10:58:48Z

@<SCITEGIC>ROOT_PROPERTY
Ligand:MaximumNumberOfAtoms
SciTegic.value.IntegerValue
100

@<SCITEGIC>ROOT_PROPERTY
Ligand:HydrogenAtomsCountTowardsMaximum
SciTegic.value.BooleanValue
FALSE

@<TRIPOS>MOLECULE
2_bond_rotate_all.sd
   31    33     0 0 0
SMALL
USER_CHARGES


@<TRIPOS>ATOM
      1 C1            0.000000    0.000000   -2.977000 C.2      1 SUBUNIT    0.0268
      2 N2           -0.702300    1.216400   -2.977000 N.2      1 SUBUNIT   -0.2639
      3 C3           -2.106800    1.216400   -2.977000 C.2      1 SUBUNIT    0.0393
      4 C4           -2.809000    0.000000   -2.977000 C.2      1 SUBUNIT    0.0557
      5 C5           -2.106800   -1.216400   -2.977000 C.2      1 SUBUNIT   -0.0466
      6 C6           -0.702200   -1.216400   -2.977000 C.2      1 SUBUNIT   -0.0430
      7 H7            1.103400    0.000000   -2.977000 H        1 SUBUNIT    0.0840
      8 H8           -2.658500    2.172000   -2.977000 H        1 SUBUNIT    0.0848
      9 H9           -2.658500   -2.171900   -2.977000 H        1 SUBUNIT    0.0632
     10 H10          -0.150500   -2.172000   -2.977000 H        1 SUBUNIT    0.0639
     11 C11          -4.137600   -0.014300   -2.977000 C.2      1 SUBUNIT    0.2487
     12 N12          -4.803800   -1.057900   -2.378600 N.am     1 SUBUNIT   -0.2816
     13 O13          -4.756300    0.898300   -3.507700 O.2      1 SUBUNIT   -0.2715
     14 H14          -4.188300   -1.759500   -1.969800 H        1 SUBUNIT    0.1560
     15 C15          -6.117600   -1.074400   -2.377300 C.2      1 SUBUNIT    0.0291
     16 C16          -6.845200    0.127000   -2.376500 C.2      1 SUBUNIT   -0.0552
     17 C17          -8.198500   -2.334600   -2.375100 C.2      1 SUBUNIT   -0.0749
     18 C18          -6.794200   -2.305200   -2.376600 C.2      1 SUBUNIT   -0.0444
     19 H19          -6.313500    1.094000   -2.377100 H        1 SUBUNIT    0.0602
     20 H20          -8.730100   -3.301500   -2.374500 H        1 SUBUNIT    0.0583
     21 H21          -6.222600   -3.249100   -2.377100 H        1 SUBUNIT    0.0639
     22 C22         -10.278300   -1.191200   -2.372900 C.2      1 SUBUNIT   -0.0756
     23 C23         -11.005900    0.010200   -2.372200 C.2      1 SUBUNIT   -0.0517
     24 C24         -10.329300    1.241000   -2.372900 C.2      1 SUBUNIT    0.0138
     25 C25          -8.925100    1.270400   -2.374400 C.2      1 SUBUNIT   -0.0624
     26 C26          -8.197400    0.069000   -2.375100 C.3      1 SUBUNIT    0.0480
     27 C27          -8.874000   -1.161800   -2.374400 C.3      1 SUBUNIT    0.0452
     28 H28         -10.809800   -2.158100   -2.372400 H        1 SUBUNIT    0.0583
     29 H29         -12.109100   -0.013000   -2.371100 H        1 SUBUNIT    0.0631
     30 Br30        -11.328300    2.890600   -2.371900 Br       1 SUBUNIT   -0.0512
     31 H31          -8.393500    2.237300   -2.374900 H        1 SUBUNIT    0.0594
@<TRIPOS>BOND
     1    1    2 2
     2    1    6 1
     3    1    7 1
     4    2    3 1
     5    3    4 2
     6    3    8 1
     7    4    5 1
     8    4   11 1
     9    5    6 2
    10    5    9 1
    11    6   10 1
    12   11   12 1
    13   11   13 2
    14   12   14 1
    15   12   15 1
    16   15   16 2
    17   15   18 1
    18   16   26 1
    19   16   19 1
    20   17   27 1
    21   17   18 2
    22   17   20 1
    23   18   21 1
    24   22   23 2
    25   22   27 1
    26   22   28 1
    27   23   24 1
    28   23   29 1
    29   24   25 2
    30   24   30 1
    31   25   26 1
    32   25   31 1
    33   26   27 1
@<SCITEGIC>ATOM_PROPERTY
Formal Charge
SciTegic.value.StringValue
1 0
2 0
3 0
4 0
5 0
6 0
7 0
8 0
9 0
10 0
11 0
12 0
13 0
14 0
15 0
16 0
17 0
18 0
19 0
20 0
21 0
22 0
23 0
24 0
25 0
26 0
27 0
28 0
29 0
30 0
31 0

@<SCITEGIC>ATOM_PROPERTY
pdb_tempFactor
SciTegic.value.DoubleValue
1 0.00
2 0.00
3 0.00
4 0.00
5 0.00
6 0.00
7 0.00
8 0.00
9 0.00
10 0.00
11 0.00
12 0.00
13 0.00
14 0.00
15 0.00
16 0.00
17 0.00
18 0.00
19 0.00
20 0.00
21 0.00
22 0.00
23 0.00
24 0.00
25 0.00
26 0.00
27 0.00
28 0.00
29 0.00
30 0.00
31 0.00

@<SCITEGIC>ATOM_PROPERTY
pdb_occupancy
SciTegic.value.DoubleValue
1 1.00
2 1.00
3 1.00
4 1.00
5 1.00
6 1.00
7 1.00
8 1.00
9 1.00
10 1.00
11 1.00
12 1.00
13 1.00
14 1.00
15 1.00
16 1.00
17 1.00
18 1.00
19 1.00
20 1.00
21 1.00
22 1.00
23 1.00
24 1.00
25 1.00
26 1.00
27 1.00
28 1.00
29 1.00
30 1.00
31 1.00

#	copyright 2023 drugdesign.org
#	Creation time:	2024-01-11T10:58:48Z

@<SCITEGIC>ROOT_PROPERTY
Ligand:MaximumNumberOfAtoms
SciTegic.value.IntegerValue
100

@<SCITEGIC>ROOT_PROPERTY
Ligand:HydrogenAtomsCountTowardsMaximum
SciTegic.value.BooleanValue
FALSE

@<TRIPOS>MOLECULE
2_bond_rotate_all.sd
   31    33     0 0 0
SMALL
USER_CHARGES


@<TRIPOS>ATOM
      1 C1            0.000000    0.000000   -2.977000 C.2      1 SUBUNIT    0.0268
      2 N2           -0.702300    1.216400   -2.977000 N.2      1 SUBUNIT   -0.2639
      3 C3           -2.106800    1.216400   -2.977000 C.2      1 SUBUNIT    0.0393
      4 C4           -2.809000    0.000000   -2.977000 C.2      1 SUBUNIT    0.0557
      5 C5           -2.106800   -1.216400   -2.977000 C.2      1 SUBUNIT   -0.0466
      6 C6           -0.702200   -1.216400   -2.977000 C.2      1 SUBUNIT   -0.0430
      7 H7            1.103400    0.000000   -2.977000 H        1 SUBUNIT    0.0840
      8 H8           -2.658500    2.172000   -2.977000 H        1 SUBUNIT    0.0848
      9 H9           -2.658500   -2.171900   -2.977000 H        1 SUBUNIT    0.0632
     10 H10          -0.150500   -2.172000   -2.977000 H        1 SUBUNIT    0.0639
     11 C11          -4.137600   -0.014300   -2.977000 C.2      1 SUBUNIT    0.2487
     12 N12          -4.808500   -0.619900   -1.940600 N.am     1 SUBUNIT   -0.2816
     13 O13          -4.752100    0.509800   -3.896200 O.2      1 SUBUNIT   -0.2715
     14 H14          -4.196200   -1.022200   -1.232400 H        1 SUBUNIT    0.1560
     15 C15          -6.122300   -0.635400   -1.938300 C.2      1 SUBUNIT    0.0291
     16 C16          -6.843800   -0.038600   -2.985300 C.2      1 SUBUNIT   -0.0552
     17 C17          -8.209500   -1.277100   -0.865800 C.2      1 SUBUNIT   -0.0749
     18 C18          -6.805100   -1.254600   -0.878500 C.2      1 SUBUNIT   -0.0444
     19 H19          -6.307200    0.447800   -3.817800 H        1 SUBUNIT    0.0602
     20 H20          -8.746000   -1.763500   -0.033300 H        1 SUBUNIT    0.0583
     21 H21          -6.238400   -1.723400   -0.056000 H        1 SUBUNIT    0.0639
     22 C22         -10.283400   -0.716700   -1.874800 C.2      1 SUBUNIT   -0.0756
     23 C23         -11.004800   -0.120000   -2.921800 C.2      1 SUBUNIT   -0.0517
     24 C24         -10.322000    0.499200   -3.981500 C.2      1 SUBUNIT    0.0138
     25 C25          -8.917700    0.521600   -3.994200 C.2      1 SUBUNIT   -0.0624
     26 C26          -8.196200   -0.075100   -2.947300 C.3      1 SUBUNIT    0.0480
     27 C27          -8.879100   -0.694300   -1.887500 C.3      1 SUBUNIT    0.0452
     28 H28         -10.819800   -1.203200   -1.042300 H        1 SUBUNIT    0.0583
     29 H29         -12.108100   -0.137700   -2.911800 H        1 SUBUNIT    0.0631
     30 Br30        -11.312600    1.318600   -5.419100 Br       1 SUBUNIT   -0.0512
     31 H31          -8.381200    1.008100   -4.826700 H        1 SUBUNIT    0.0594
@<TRIPOS>BOND
     1    1    2 2
     2    1    6 1
     3    1    7 1
     4    2    3 1
     5    3    4 2
     6    3    8 1
     7    4    5 1
     8    4   11 1
     9    5    6 2
    10    5    9 1
    11    6   10 1
    12   11   12 1
    13   11   13 2
    14   12   14 1
    15   12   15 1
    16   15   16 2
    17   15   18 1
    18   16   26 1
    19   16   19 1
    20   17   27 1
    21   17   18 2
    22   17   20 1
    23   18   21 1
    24   22   23 2
    25   22   27 1
    26   22   28 1
    27   23   24 1
    28   23   29 1
    29   24   25 2
    30   24   30 1
    31   25   26 1
    32   25   31 1
    33   26   27 1
@<SCITEGIC>ATOM_PROPERTY
Formal Charge
SciTegic.value.StringValue
1 0
2 0
3 0
4 0
5 0
6 0
7 0
8 0
9 0
10 0
11 0
12 0
13 0
14 0
15 0
16 0
17 0
18 0
19 0
20 0
21 0
22 0
23 0
24 0
25 0
26 0
27 0
28 0
29 0
30 0
31 0

@<SCITEGIC>ATOM_PROPERTY
pdb_tempFactor
SciTegic.value.DoubleValue
1 0.00
2 0.00
3 0.00
4 0.00
5 0.00
6 0.00
7 0.00
8 0.00
9 0.00
10 0.00
11 0.00
12 0.00
13 0.00
14 0.00
15 0.00
16 0.00
17 0.00
18 0.00
19 0.00
20 0.00
21 0.00
22 0.00
23 0.00
24 0.00
25 0.00
26 0.00
27 0.00
28 0.00
29 0.00
30 0.00
31 0.00

@<SCITEGIC>ATOM_PROPERTY
pdb_occupancy
SciTegic.value.DoubleValue
1 1.00
2 1.00
3 1.00
4 1.00
5 1.00
6 1.00
7 1.00
8 1.00
9 1.00
10 1.00
11 1.00
12 1.00
13 1.00
14 1.00
15 1.00
16 1.00
17 1.00
18 1.00
19 1.00
20 1.00
21 1.00
22 1.00
23 1.00
24 1.00
25 1.00
26 1.00
27 1.00
28 1.00
29 1.00
30 1.00
31 1.00

#	copyright 2023 drugdesign.org
#	Creation time:	2024-01-11T10:58:48Z

@<SCITEGIC>ROOT_PROPERTY
Ligand:MaximumNumberOfAtoms
SciTegic.value.IntegerValue
100

@<SCITEGIC>ROOT_PROPERTY
Ligand:HydrogenAtomsCountTowardsMaximum
SciTegic.value.BooleanValue
FALSE

@<TRIPOS>MOLECULE
2_bond_rotate_all.sd
   31    33     0 0 0
SMALL
USER_CHARGES


@<TRIPOS>ATOM
      1 C1            0.000000    0.000000   -2.977000 C.2      1 SUBUNIT    0.0268
      2 N2           -0.702300    1.216400   -2.977000 N.2      1 SUBUNIT   -0.2639
      3 C3           -2.106800    1.216400   -2.977000 C.2      1 SUBUNIT    0.0393
      4 C4           -2.809000    0.000000   -2.977000 C.2      1 SUBUNIT    0.0557
      5 C5           -2.106800   -1.216400   -2.977000 C.2      1 SUBUNIT   -0.0466
      6 C6           -0.702200   -1.216400   -2.977000 C.2      1 SUBUNIT   -0.0430
      7 H7            1.103400    0.000000   -2.977000 H        1 SUBUNIT    0.0840
      8 H8           -2.658500    2.172000   -2.977000 H        1 SUBUNIT    0.0848
      9 H9           -2.658500   -2.171900   -2.977000 H        1 SUBUNIT    0.0632
     10 H10          -0.150500   -2.172000   -2.977000 H        1 SUBUNIT    0.0639
     11 C11          -4.137600   -0.014300   -2.977000 C.2      1 SUBUNIT    0.2487
     12 N12          -4.808500   -0.619900   -1.940600 N.am     1 SUBUNIT   -0.2816
     13 O13          -4.752100    0.509800   -3.896200 O.2      1 SUBUNIT   -0.2715
     14 H14          -4.196200   -1.022200   -1.232400 H        1 SUBUNIT    0.1560
     15 C15          -6.122300   -0.635400   -1.938300 C.2      1 SUBUNIT    0.0291
     16 C16          -6.836900   -0.643800   -3.147400 C.2      1 SUBUNIT   -0.0552
     17 C17          -8.216500   -0.660100   -0.700500 C.2      1 SUBUNIT   -0.0749
     18 C18          -6.812100   -0.643500   -0.714800 C.2      1 SUBUNIT   -0.0444
     19 H19          -6.294900   -0.637400   -4.108600 H        1 SUBUNIT    0.0602
     20 H20          -8.758400   -0.666500    0.260600 H        1 SUBUNIT    0.0583
     21 H21          -6.250700   -0.636900    0.235200 H        1 SUBUNIT    0.0639
     22 C22         -10.283700   -0.684500   -1.866200 C.2      1 SUBUNIT   -0.0756
     23 C23         -10.998300   -0.692900   -3.075400 C.2      1 SUBUNIT   -0.0517
     24 C24         -10.308600   -0.684700   -4.298800 C.2      1 SUBUNIT    0.0138
     25 C25          -8.904200   -0.668200   -4.313100 C.2      1 SUBUNIT   -0.0624
     26 C26          -8.189600   -0.659800   -3.104000 C.3      1 SUBUNIT    0.0480
     27 C27          -8.879400   -0.667900   -1.880400 C.3      1 SUBUNIT    0.0452
     28 H28         -10.825600   -0.690800   -0.905000 H        1 SUBUNIT    0.0583
     29 H29         -12.101700   -0.705900   -3.064000 H        1 SUBUNIT    0.0631
     30 Br30        -11.289800   -0.696300   -5.959000 Br       1 SUBUNIT   -0.0512
     31 H31          -8.362300   -0.661800   -5.274200 H        1 SUBUNIT    0.0594
@<TRIPOS>BOND
     1    1    2 2
     2    1    6 1
     3    1    7 1
     4    2    3 1
     5    3    4 2
     6    3    8 1
     7    4    5 1
     8    4   11 1
     9    5    6 2
    10    5    9 1
    11    6   10 1
    12   11   12 1
    13   11   13 2
    14   12   14 1
    15   12   15 1
    16   15   16 2
    17   15   18 1
    18   16   26 1
    19   16   19 1
    20   17   27 1
    21   17   18 2
    22   17   20 1
    23   18   21 1
    24   22   23 2
    25   22   27 1
    26   22   28 1
    27   23   24 1
    28   23   29 1
    29   24   25 2
    30   24   30 1
    31   25   26 1
    32   25   31 1
    33   26   27 1
@<SCITEGIC>ATOM_PROPERTY
Formal Charge
SciTegic.value.StringValue
1 0
2 0
3 0
4 0
5 0
6 0
7 0
8 0
9 0
10 0
11 0
12 0
13 0
14 0
15 0
16 0
17 0
18 0
19 0
20 0
21 0
22 0
23 0
24 0
25 0
26 0
27 0
28 0
29 0
30 0
31 0

@<SCITEGIC>ATOM_PROPERTY
pdb_tempFactor
SciTegic.value.DoubleValue
1 0.00
2 0.00
3 0.00
4 0.00
5 0.00
6 0.00
7 0.00
8 0.00
9 0.00
10 0.00
11 0.00
12 0.00
13 0.00
14 0.00
15 0.00
16 0.00
17 0.00
18 0.00
19 0.00
20 0.00
21 0.00
22 0.00
23 0.00
24 0.00
25 0.00
26 0.00
27 0.00
28 0.00
29 0.00
30 0.00
31 0.00

@<SCITEGIC>ATOM_PROPERTY
pdb_occupancy
SciTegic.value.DoubleValue
1 1.00
2 1.00
3 1.00
4 1.00
5 1.00
6 1.00
7 1.00
8 1.00
9 1.00
10 1.00
11 1.00
12 1.00
13 1.00
14 1.00
15 1.00
16 1.00
17 1.00
18 1.00
19 1.00
20 1.00
21 1.00
22 1.00
23 1.00
24 1.00
25 1.00
26 1.00
27 1.00
28 1.00
29 1.00
30 1.00
31 1.00

#	copyright 2023 drugdesign.org
#	Creation time:	2024-01-11T10:58:48Z

@<SCITEGIC>ROOT_PROPERTY
Ligand:MaximumNumberOfAtoms
SciTegic.value.IntegerValue
100

@<SCITEGIC>ROOT_PROPERTY
Ligand:HydrogenAtomsCountTowardsMaximum
SciTegic.value.BooleanValue
FALSE

@<TRIPOS>MOLECULE
2_bond_rotate_all.sd
   31    33     0 0 0
SMALL
USER_CHARGES


@<TRIPOS>ATOM
      1 C1            0.000000    0.000000   -2.977000 C.2      1 SUBUNIT    0.0268
      2 N2           -0.702300    1.216400   -2.977000 N.2      1 SUBUNIT   -0.2639
      3 C3           -2.106800    1.216400   -2.977000 C.2      1 SUBUNIT    0.0393
      4 C4           -2.809000    0.000000   -2.977000 C.2      1 SUBUNIT    0.0557
      5 C5           -2.106800   -1.216400   -2.977000 C.2      1 SUBUNIT   -0.0466
      6 C6           -0.702200   -1.216400   -2.977000 C.2      1 SUBUNIT   -0.0430
      7 H7            1.103400    0.000000   -2.977000 H        1 SUBUNIT    0.0840
      8 H8           -2.658500    2.172000   -2.977000 H        1 SUBUNIT    0.0848
      9 H9           -2.658500   -2.171900   -2.977000 H        1 SUBUNIT    0.0632
     10 H10          -0.150500   -2.172000   -2.977000 H        1 SUBUNIT    0.0639
     11 C11          -4.137600   -0.014300   -2.977000 C.2      1 SUBUNIT    0.2487
     12 N12          -4.808500   -0.619900   -1.940600 N.am     1 SUBUNIT   -0.2816
     13 O13          -4.752100    0.509800   -3.896200 O.2      1 SUBUNIT   -0.2715
     14 H14          -4.196200   -1.022200   -1.232400 H        1 SUBUNIT    0.1560
     15 C15          -6.122300   -0.635400   -1.938300 C.2      1 SUBUNIT    0.0291
     16 C16          -6.829500   -1.249000   -2.985300 C.2      1 SUBUNIT   -0.0552
     17 C17          -8.224100   -0.043100   -0.865800 C.2      1 SUBUNIT   -0.0749
     18 C18          -6.819600   -0.032400   -0.878500 C.2      1 SUBUNIT   -0.0444
     19 H19          -6.281600   -1.722700   -3.817800 H        1 SUBUNIT    0.0602
     20 H20          -8.771900    0.430500   -0.033300 H        1 SUBUNIT    0.0583
     21 H21          -6.264000    0.449600   -0.056000 H        1 SUBUNIT    0.0639
     22 C22         -10.284100   -0.652200   -1.874800 C.2      1 SUBUNIT   -0.0756
     23 C23         -10.991300   -1.265800   -2.921800 C.2      1 SUBUNIT   -0.0517
     24 C24         -10.294100   -1.868700   -3.981500 C.2      1 SUBUNIT    0.0138
     25 C25          -8.889600   -1.858000   -3.994200 C.2      1 SUBUNIT   -0.0624
     26 C26          -8.182400   -1.244400   -2.947300 C.3      1 SUBUNIT    0.0480
     27 C27          -8.879700   -0.641500   -1.887500 C.3      1 SUBUNIT    0.0452
     28 H28         -10.831900   -0.178500   -1.042300 H        1 SUBUNIT    0.0583
     29 H29         -12.094700   -1.274100   -2.911800 H        1 SUBUNIT    0.0631
     30 Br30        -11.265100   -2.711200   -5.419100 Br       1 SUBUNIT   -0.0512
     31 H31          -8.341800   -2.331700   -4.826700 H        1 SUBUNIT    0.0594
@<TRIPOS>BOND
     1    1    2 2
     2    1    6 1
     3    1    7 1
     4    2    3 1
     5    3    4 2
     6    3    8 1
     7    4    5 1
     8    4   11 1
     9    5    6 2
    10    5    9 1
    11    6   10 1
    12   11   12 1
    13   11   13 2
    14   12   14 1
    15   12   15 1
    16   15   16 2
    17   15   18 1
    18   16   26 1
    19   16   19 1
    20   17   27 1
    21   17   18 2
    22   17   20 1
    23   18   21 1
    24   22   23 2
    25   22   27 1
    26   22   28 1
    27   23   24 1
    28   23   29 1
    29   24   25 2
    30   24   30 1
    31   25   26 1
    32   25   31 1
    33   26   27 1
@<SCITEGIC>ATOM_PROPERTY
Formal Charge
SciTegic.value.StringValue
1 0
2 0
3 0
4 0
5 0
6 0
7 0
8 0
9 0
10 0
11 0
12 0
13 0
14 0
15 0
16 0
17 0
18 0
19 0
20 0
21 0
22 0
23 0
24 0
25 0
26 0
27 0
28 0
29 0
30 0
31 0

@<SCITEGIC>ATOM_PROPERTY
pdb_tempFactor
SciTegic.value.DoubleValue
1 0.00
2 0.00
3 0.00
4 0.00
5 0.00
6 0.00
7 0.00
8 0.00
9 0.00
10 0.00
11 0.00
12 0.00
13 0.00
14 0.00
15 0.00
16 0.00
17 0.00
18 0.00
19 0.00
20 0.00
21 0.00
22 0.00
23 0.00
24 0.00
25 0.00
26 0.00
27 0.00
28 0.00
29 0.00
30 0.00
31 0.00

@<SCITEGIC>ATOM_PROPERTY
pdb_occupancy
SciTegic.value.DoubleValue
1 1.00
2 1.00
3 1.00
4 1.00
5 1.00
6 1.00
7 1.00
8 1.00
9 1.00
10 1.00
11 1.00
12 1.00
13 1.00
14 1.00
15 1.00
16 1.00
17 1.00
18 1.00
19 1.00
20 1.00
21 1.00
22 1.00
23 1.00
24 1.00
25 1.00
26 1.00
27 1.00
28 1.00
29 1.00
30 1.00
31 1.00

#	copyright 2023 drugdesign.org
#	Creation time:	2024-01-11T10:58:48Z

@<SCITEGIC>ROOT_PROPERTY
Ligand:MaximumNumberOfAtoms
SciTegic.value.IntegerValue
100

@<SCITEGIC>ROOT_PROPERTY
Ligand:HydrogenAtomsCountTowardsMaximum
SciTegic.value.BooleanValue
FALSE

@<TRIPOS>MOLECULE
2_bond_rotate_all.sd
   31    33     0 0 0
SMALL
USER_CHARGES


@<TRIPOS>ATOM
      1 C1            0.000000    0.000000   -2.977000 C.2      1 SUBUNIT    0.0268
      2 N2           -0.702300    1.216400   -2.977000 N.2      1 SUBUNIT   -0.2639
      3 C3           -2.106800    1.216400   -2.977000 C.2      1 SUBUNIT    0.0393
      4 C4           -2.809000    0.000000   -2.977000 C.2      1 SUBUNIT    0.0557
      5 C5           -2.106800   -1.216400   -2.977000 C.2      1 SUBUNIT   -0.0466
      6 C6           -0.702200   -1.216400   -2.977000 C.2      1 SUBUNIT   -0.0430
      7 H7            1.103400    0.000000   -2.977000 H        1 SUBUNIT    0.0840
      8 H8           -2.658500    2.172000   -2.977000 H        1 SUBUNIT    0.0848
      9 H9           -2.658500   -2.171900   -2.977000 H        1 SUBUNIT    0.0632
     10 H10          -0.150500   -2.172000   -2.977000 H        1 SUBUNIT    0.0639
     11 C11          -4.137600   -0.014300   -2.977000 C.2      1 SUBUNIT    0.2487
     12 N12          -4.808500   -0.619900   -1.940600 N.am     1 SUBUNIT   -0.2816
     13 O13          -4.752100    0.509800   -3.896200 O.2      1 SUBUNIT   -0.2715
     14 H14          -4.196200   -1.022200   -1.232400 H        1 SUBUNIT    0.1560
     15 C15          -6.122300   -0.635400   -1.938300 C.2      1 SUBUNIT    0.0291
     16 C16          -6.823500   -1.692000   -2.542200 C.2      1 SUBUNIT   -0.0552
     17 C17          -8.230200    0.408500   -1.317500 C.2      1 SUBUNIT   -0.0749
     18 C18          -6.825600    0.414900   -1.325900 C.2      1 SUBUNIT   -0.0444
     19 H19          -6.270800   -2.517100   -3.023300 H        1 SUBUNIT    0.0602
     20 H20          -8.782800    1.233500   -0.836400 H        1 SUBUNIT    0.0583
     21 H21          -6.274800    1.245000   -0.851400 H        1 SUBUNIT    0.0639
     22 C22         -10.284400   -0.628500   -1.898500 C.2      1 SUBUNIT   -0.0756
     23 C23         -10.985600   -1.685200   -2.502400 C.2      1 SUBUNIT   -0.0517
     24 C24         -10.282300   -2.735400   -3.114800 C.2      1 SUBUNIT    0.0138
     25 C25          -8.877800   -2.729000   -3.123200 C.2      1 SUBUNIT   -0.0624
     26 C26          -8.176600   -1.672400   -2.519300 C.3      1 SUBUNIT    0.0480
     27 C27          -8.879900   -0.622100   -1.906900 C.3      1 SUBUNIT    0.0452
     28 H28         -10.837000    0.196500   -1.417400 H        1 SUBUNIT    0.0583
     29 H29         -12.089100   -1.690100   -2.495800 H        1 SUBUNIT    0.0631
     30 Br30        -11.245000   -4.186200   -3.944000 Br       1 SUBUNIT   -0.0512
     31 H31          -8.325200   -3.554100   -3.604200 H        1 SUBUNIT    0.0594
@<TRIPOS>BOND
     1    1    2 2
     2    1    6 1
     3    1    7 1
     4    2    3 1
     5    3    4 2
     6    3    8 1
     7    4    5 1
     8    4   11 1
     9    5    6 2
    10    5    9 1
    11    6   10 1
    12   11   12 1
    13   11   13 2
    14   12   14 1
    15   12   15 1
    16   15   16 2
    17   15   18 1
    18   16   26 1
    19   16   19 1
    20   17   27 1
    21   17   18 2
    22   17   20 1
    23   18   21 1
    24   22   23 2
    25   22   27 1
    26   22   28 1
    27   23   24 1
    28   23   29 1
    29   24   25 2
    30   24   30 1
    31   25   26 1
    32   25   31 1
    33   26   27 1
@<SCITEGIC>ATOM_PROPERTY
Formal Charge
SciTegic.value.StringValue
1 0
2 0
3 0
4 0
5 0
6 0
7 0
8 0
9 0
10 0
11 0
12 0
13 0
14 0
15 0
16 0
17 0
18 0
19 0
20 0
21 0
22 0
23 0
24 0
25 0
26 0
27 0
28 0
29 0
30 0
31 0

@<SCITEGIC>ATOM_PROPERTY
pdb_tempFactor
SciTegic.value.DoubleValue
1 0.00
2 0.00
3 0.00
4 0.00
5 0.00
6 0.00
7 0.00
8 0.00
9 0.00
10 0.00
11 0.00
12 0.00
13 0.00
14 0.00
15 0.00
16 0.00
17 0.00
18 0.00
19 0.00
20 0.00
21 0.00
22 0.00
23 0.00
24 0.00
25 0.00
26 0.00
27 0.00
28 0.00
29 0.00
30 0.00
31 0.00

@<SCITEGIC>ATOM_PROPERTY
pdb_occupancy
SciTegic.value.DoubleValue
1 1.00
2 1.00
3 1.00
4 1.00
5 1.00
6 1.00
7 1.00
8 1.00
9 1.00
10 1.00
11 1.00
12 1.00
13 1.00
14 1.00
15 1.00
16 1.00
17 1.00
18 1.00
19 1.00
20 1.00
21 1.00
22 1.00
23 1.00
24 1.00
25 1.00
26 1.00
27 1.00
28 1.00
29 1.00
30 1.00
31 1.00

#	copyright 2023 drugdesign.org
#	Creation time:	2024-01-11T10:58:48Z

@<SCITEGIC>ROOT_PROPERTY
Ligand:MaximumNumberOfAtoms
SciTegic.value.IntegerValue
100

@<SCITEGIC>ROOT_PROPERTY
Ligand:HydrogenAtomsCountTowardsMaximum
SciTegic.value.BooleanValue
FALSE

@<TRIPOS>MOLECULE
2_bond_rotate_all.sd
   31    33     0 0 0
SMALL
USER_CHARGES


@<TRIPOS>ATOM
      1 C1            0.000000    0.000000   -2.977000 C.2      1 SUBUNIT    0.0268
      2 N2           -0.702300    1.216400   -2.977000 N.2      1 SUBUNIT   -0.2639
      3 C3           -2.106800    1.216400   -2.977000 C.2      1 SUBUNIT    0.0393
      4 C4           -2.809000    0.000000   -2.977000 C.2      1 SUBUNIT    0.0557
      5 C5           -2.106800   -1.216400   -2.977000 C.2      1 SUBUNIT   -0.0466
      6 C6           -0.702200   -1.216400   -2.977000 C.2      1 SUBUNIT   -0.0430
      7 H7            1.103400    0.000000   -2.977000 H        1 SUBUNIT    0.0840
      8 H8           -2.658500    2.172000   -2.977000 H        1 SUBUNIT    0.0848
      9 H9           -2.658500   -2.171900   -2.977000 H        1 SUBUNIT    0.0632
     10 H10          -0.150500   -2.172000   -2.977000 H        1 SUBUNIT    0.0639
     11 C11          -4.137600   -0.014300   -2.977000 C.2      1 SUBUNIT    0.2487
     12 N12          -4.808500   -0.619900   -1.940600 N.am     1 SUBUNIT   -0.2816
     13 O13          -4.752100    0.509800   -3.896200 O.2      1 SUBUNIT   -0.2715
     14 H14          -4.196200   -1.022200   -1.232400 H        1 SUBUNIT    0.1560
     15 C15          -6.122300   -0.635400   -1.938300 C.2      1 SUBUNIT    0.0291
     16 C16          -6.820500   -1.854200   -1.937000 C.2      1 SUBUNIT   -0.0552
     17 C17          -8.233300    0.573800   -1.934500 C.2      1 SUBUNIT   -0.0749
     18 C18          -6.828700    0.578600   -1.937000 C.2      1 SUBUNIT   -0.0444
     19 H19          -6.265400   -2.807900   -1.937900 H        1 SUBUNIT    0.0602
     20 H20          -8.788200    1.527500   -1.933500 H        1 SUBUNIT    0.0583
     21 H21          -6.280200    1.536100   -1.938000 H        1 SUBUNIT    0.0639
     22 C22         -10.284600   -0.619900   -1.930800 C.2      1 SUBUNIT   -0.0756
     23 C23         -10.982800   -1.838700   -1.929500 C.2      1 SUBUNIT   -0.0517
     24 C24         -10.276400   -3.052600   -1.930700 C.2      1 SUBUNIT    0.0138
     25 C25          -8.871900   -3.047800   -1.933200 C.2      1 SUBUNIT   -0.0624
     26 C26          -8.173700   -1.829100   -1.934500 C.3      1 SUBUNIT    0.0480
     27 C27          -8.880100   -0.615100   -1.933300 C.3      1 SUBUNIT    0.0452
     28 H28         -10.839500    0.333800   -1.929800 H        1 SUBUNIT    0.0583
     29 H29         -12.086200   -1.842300   -1.927500 H        1 SUBUNIT    0.0631
     30 Br30        -11.235000   -4.726000   -1.929000 Br       1 SUBUNIT   -0.0512
     31 H31          -8.316900   -4.001500   -1.934200 H        1 SUBUNIT    0.0594
@<TRIPOS>BOND
     1    1    2 2
     2    1    6 1
     3    1    7 1
     4    2    3 1
     5    3    4 2
     6    3    8 1
     7    4    5 1
     8    4   11 1
     9    5    6 2
    10    5    9 1
    11    6   10 1
    12   11   12 1
    13   11   13 2
    14   12   14 1
    15   12   15 1
    16   15   16 2
    17   15   18 1
    18   16   26 1
    19   16   19 1
    20   17   27 1
    21   17   18 2
    22   17   20 1
    23   18   21 1
    24   22   23 2
    25   22   27 1
    26   22   28 1
    27   23   24 1
    28   23   29 1
    29   24   25 2
    30   24   30 1
    31   25   26 1
    32   25   31 1
    33   26   27 1
@<SCITEGIC>ATOM_PROPERTY
Formal Charge
SciTegic.value.StringValue
1 0
2 0
3 0
4 0
5 0
6 0
7 0
8 0
9 0
10 0
11 0
12 0
13 0
14 0
15 0
16 0
17 0
18 0
19 0
20 0
21 0
22 0
23 0
24 0
25 0
26 0
27 0
28 0
29 0
30 0
31 0

@<SCITEGIC>ATOM_PROPERTY
pdb_tempFactor
SciTegic.value.DoubleValue
1 0.00
2 0.00
3 0.00
4 0.00
5 0.00
6 0.00
7 0.00
8 0.00
9 0.00
10 0.00
11 0.00
12 0.00
13 0.00
14 0.00
15 0.00
16 0.00
17 0.00
18 0.00
19 0.00
20 0.00
21 0.00
22 0.00
23 0.00
24 0.00
25 0.00
26 0.00
27 0.00
28 0.00
29 0.00
30 0.00
31 0.00

@<SCITEGIC>ATOM_PROPERTY
pdb_occupancy
SciTegic.value.DoubleValue
1 1.00
2 1.00
3 1.00
4 1.00
5 1.00
6 1.00
7 1.00
8 1.00
9 1.00
10 1.00
11 1.00
12 1.00
13 1.00
14 1.00
15 1.00
16 1.00
17 1.00
18 1.00
19 1.00
20 1.00
21 1.00
22 1.00
23 1.00
24 1.00
25 1.00
26 1.00
27 1.00
28 1.00
29 1.00
30 1.00
31 1.00

#	copyright 2023 drugdesign.org
#	Creation time:	2024-01-11T10:58:48Z

@<SCITEGIC>ROOT_PROPERTY
Ligand:MaximumNumberOfAtoms
SciTegic.value.IntegerValue
100

@<SCITEGIC>ROOT_PROPERTY
Ligand:HydrogenAtomsCountTowardsMaximum
SciTegic.value.BooleanValue
FALSE

@<TRIPOS>MOLECULE
2_bond_rotate_all.sd
   31    33     0 0 0
SMALL
USER_CHARGES


@<TRIPOS>ATOM
      1 C1            0.000000    0.000000   -2.977000 C.2      1 SUBUNIT    0.0268
      2 N2           -0.702300    1.216400   -2.977000 N.2      1 SUBUNIT   -0.2639
      3 C3           -2.106800    1.216400   -2.977000 C.2      1 SUBUNIT    0.0393
      4 C4           -2.809000    0.000000   -2.977000 C.2      1 SUBUNIT    0.0557
      5 C5           -2.106800   -1.216400   -2.977000 C.2      1 SUBUNIT   -0.0466
      6 C6           -0.702200   -1.216400   -2.977000 C.2      1 SUBUNIT   -0.0430
      7 H7            1.103400    0.000000   -2.977000 H        1 SUBUNIT    0.0840
      8 H8           -2.658500    2.172000   -2.977000 H        1 SUBUNIT    0.0848
      9 H9           -2.658500   -2.171900   -2.977000 H        1 SUBUNIT    0.0632
     10 H10          -0.150500   -2.172000   -2.977000 H        1 SUBUNIT    0.0639
     11 C11          -4.137600   -0.014300   -2.977000 C.2      1 SUBUNIT    0.2487
     12 N12          -4.808500   -0.619900   -1.940600 N.am     1 SUBUNIT   -0.2816
     13 O13          -4.752100    0.509800   -3.896200 O.2      1 SUBUNIT   -0.2715
     14 H14          -4.196200   -1.022200   -1.232400 H        1 SUBUNIT    0.1560
     15 C15          -6.122300   -0.635400   -1.938300 C.2      1 SUBUNIT    0.0291
     16 C16          -6.821300   -1.692000   -1.331700 C.2      1 SUBUNIT   -0.0552
     17 C17          -8.232400    0.408500   -2.551500 C.2      1 SUBUNIT   -0.0749
     18 C18          -6.827800    0.414900   -2.548100 C.2      1 SUBUNIT   -0.0444
     19 H19          -6.266900   -2.517100   -0.852600 H        1 SUBUNIT    0.0602
     20 H20          -8.786700    1.233500   -3.030600 H        1 SUBUNIT    0.0583
     21 H21          -6.278700    1.244900   -3.024600 H        1 SUBUNIT    0.0639
     22 C22         -10.284600   -0.628500   -1.963000 C.2      1 SUBUNIT   -0.0756
     23 C23         -10.983500   -1.685100   -1.356500 C.2      1 SUBUNIT   -0.0517
     24 C24         -10.278000   -2.735300   -0.746700 C.2      1 SUBUNIT    0.0138
     25 C25          -8.873500   -2.728900   -0.743300 C.2      1 SUBUNIT   -0.0624
     26 C26          -8.174500   -1.672400   -1.349800 C.3      1 SUBUNIT    0.0480
     27 C27          -8.880000   -0.622100   -1.959700 C.3      1 SUBUNIT    0.0452
     28 H28         -10.838800    0.196500   -2.442200 H        1 SUBUNIT    0.0583
     29 H29         -12.087000   -1.690100   -1.359200 H        1 SUBUNIT    0.0631
     30 Br30        -11.237800   -4.186100    0.086100 Br       1 SUBUNIT   -0.0512
     31 H31          -8.319200   -3.554000   -0.264200 H        1 SUBUNIT    0.0594
@<TRIPOS>BOND
     1    1    2 2
     2    1    6 1
     3    1    7 1
     4    2    3 1
     5    3    4 2
     6    3    8 1
     7    4    5 1
     8    4   11 1
     9    5    6 2
    10    5    9 1
    11    6   10 1
    12   11   12 1
    13   11   13 2
    14   12   14 1
    15   12   15 1
    16   15   16 2
    17   15   18 1
    18   16   26 1
    19   16   19 1
    20   17   27 1
    21   17   18 2
    22   17   20 1
    23   18   21 1
    24   22   23 2
    25   22   27 1
    26   22   28 1
    27   23   24 1
    28   23   29 1
    29   24   25 2
    30   24   30 1
    31   25   26 1
    32   25   31 1
    33   26   27 1
@<SCITEGIC>ATOM_PROPERTY
Formal Charge
SciTegic.value.StringValue
1 0
2 0
3 0
4 0
5 0
6 0
7 0
8 0
9 0
10 0
11 0
12 0
13 0
14 0
15 0
16 0
17 0
18 0
19 0
20 0
21 0
22 0
23 0
24 0
25 0
26 0
27 0
28 0
29 0
30 0
31 0

@<SCITEGIC>ATOM_PROPERTY
pdb_tempFactor
SciTegic.value.DoubleValue
1 0.00
2 0.00
3 0.00
4 0.00
5 0.00
6 0.00
7 0.00
8 0.00
9 0.00
10 0.00
11 0.00
12 0.00
13 0.00
14 0.00
15 0.00
16 0.00
17 0.00
18 0.00
19 0.00
20 0.00
21 0.00
22 0.00
23 0.00
24 0.00
25 0.00
26 0.00
27 0.00
28 0.00
29 0.00
30 0.00
31 0.00

@<SCITEGIC>ATOM_PROPERTY
pdb_occupancy
SciTegic.value.DoubleValue
1 1.00
2 1.00
3 1.00
4 1.00
5 1.00
6 1.00
7 1.00
8 1.00
9 1.00
10 1.00
11 1.00
12 1.00
13 1.00
14 1.00
15 1.00
16 1.00
17 1.00
18 1.00
19 1.00
20 1.00
21 1.00
22 1.00
23 1.00
24 1.00
25 1.00
26 1.00
27 1.00
28 1.00
29 1.00
30 1.00
31 1.00

#	copyright 2023 drugdesign.org
#	Creation time:	2024-01-11T10:58:48Z

@<SCITEGIC>ROOT_PROPERTY
Ligand:MaximumNumberOfAtoms
SciTegic.value.IntegerValue
100

@<SCITEGIC>ROOT_PROPERTY
Ligand:HydrogenAtomsCountTowardsMaximum
SciTegic.value.BooleanValue
FALSE

@<TRIPOS>MOLECULE
2_bond_rotate_all.sd
   31    33     0 0 0
SMALL
USER_CHARGES


@<TRIPOS>ATOM
      1 C1            0.000000    0.000000   -2.977000 C.2      1 SUBUNIT    0.0268
      2 N2           -0.702300    1.216400   -2.977000 N.2      1 SUBUNIT   -0.2639
      3 C3           -2.106800    1.216400   -2.977000 C.2      1 SUBUNIT    0.0393
      4 C4           -2.809000    0.000000   -2.977000 C.2      1 SUBUNIT    0.0557
      5 C5           -2.106800   -1.216400   -2.977000 C.2      1 SUBUNIT   -0.0466
      6 C6           -0.702200   -1.216400   -2.977000 C.2      1 SUBUNIT   -0.0430
      7 H7            1.103400    0.000000   -2.977000 H        1 SUBUNIT    0.0840
      8 H8           -2.658500    2.172000   -2.977000 H        1 SUBUNIT    0.0848
      9 H9           -2.658500   -2.171900   -2.977000 H        1 SUBUNIT    0.0632
     10 H10          -0.150500   -2.172000   -2.977000 H        1 SUBUNIT    0.0639
     11 C11          -4.137600   -0.014300   -2.977000 C.2      1 SUBUNIT    0.2487
     12 N12          -4.808500   -0.619900   -1.940600 N.am     1 SUBUNIT   -0.2816
     13 O13          -4.752100    0.509800   -3.896200 O.2      1 SUBUNIT   -0.2715
     14 H14          -4.196200   -1.022200   -1.232400 H        1 SUBUNIT    0.1560
     15 C15          -6.122300   -0.635400   -1.938300 C.2      1 SUBUNIT    0.0291
     16 C16          -6.825700   -1.249000   -0.888700 C.2      1 SUBUNIT   -0.0552
     17 C17          -8.227900   -0.043200   -3.003200 C.2      1 SUBUNIT   -0.0749
     18 C18          -6.823400   -0.032500   -2.995500 C.2      1 SUBUNIT   -0.0444
     19 H19          -6.274800   -1.722600   -0.058100 H        1 SUBUNIT    0.0602
     20 H20          -8.778700    0.430400   -3.833700 H        1 SUBUNIT    0.0583
     21 H21          -6.270800    0.449500   -3.820000 H        1 SUBUNIT    0.0639
     22 C22         -10.284300   -0.652200   -1.986700 C.2      1 SUBUNIT   -0.0756
     23 C23         -10.987700   -1.265700   -0.937100 C.2      1 SUBUNIT   -0.0517
     24 C24         -10.286700   -1.868600    0.120100 C.2      1 SUBUNIT    0.0138
     25 C25          -8.882200   -1.857900    0.127700 C.2      1 SUBUNIT   -0.0624
     26 C26          -8.178700   -1.244400   -0.921800 C.3      1 SUBUNIT    0.0480
     27 C27          -8.879900   -0.641500   -1.979000 C.3      1 SUBUNIT    0.0452
     28 H28         -10.835100   -0.178500   -2.817200 H        1 SUBUNIT    0.0583
     29 H29         -12.091200   -1.274100   -0.943200 H        1 SUBUNIT    0.0631
     30 Br30        -11.252500   -2.711000    1.561200 Br       1 SUBUNIT   -0.0512
     31 H31          -8.331400   -2.331500    0.958300 H        1 SUBUNIT    0.0594
@<TRIPOS>BOND
     1    1    2 2
     2    1    6 1
     3    1    7 1
     4    2    3 1
     5    3    4 2
     6    3    8 1
     7    4    5 1
     8    4   11 1
     9    5    6 2
    10    5    9 1
    11    6   10 1
    12   11   12 1
    13   11   13 2
    14   12   14 1
    15   12   15 1
    16   15   16 2
    17   15   18 1
    18   16   26 1
    19   16   19 1
    20   17   27 1
    21   17   18 2
    22   17   20 1
    23   18   21 1
    24   22   23 2
    25   22   27 1
    26   22   28 1
    27   23   24 1
    28   23   29 1
    29   24   25 2
    30   24   30 1
    31   25   26 1
    32   25   31 1
    33   26   27 1
@<SCITEGIC>ATOM_PROPERTY
Formal Charge
SciTegic.value.StringValue
1 0
2 0
3 0
4 0
5 0
6 0
7 0
8 0
9 0
10 0
11 0
12 0
13 0
14 0
15 0
16 0
17 0
18 0
19 0
20 0
21 0
22 0
23 0
24 0
25 0
26 0
27 0
28 0
29 0
30 0
31 0

@<SCITEGIC>ATOM_PROPERTY
pdb_tempFactor
SciTegic.value.DoubleValue
1 0.00
2 0.00
3 0.00
4 0.00
5 0.00
6 0.00
7 0.00
8 0.00
9 0.00
10 0.00
11 0.00
12 0.00
13 0.00
14 0.00
15 0.00
16 0.00
17 0.00
18 0.00
19 0.00
20 0.00
21 0.00
22 0.00
23 0.00
24 0.00
25 0.00
26 0.00
27 0.00
28 0.00
29 0.00
30 0.00
31 0.00

@<SCITEGIC>ATOM_PROPERTY
pdb_occupancy
SciTegic.value.DoubleValue
1 1.00
2 1.00
3 1.00
4 1.00
5 1.00
6 1.00
7 1.00
8 1.00
9 1.00
10 1.00
11 1.00
12 1.00
13 1.00
14 1.00
15 1.00
16 1.00
17 1.00
18 1.00
19 1.00
20 1.00
21 1.00
22 1.00
23 1.00
24 1.00
25 1.00
26 1.00
27 1.00
28 1.00
29 1.00
30 1.00
31 1.00

#	copyright 2023 drugdesign.org
#	Creation time:	2024-01-11T10:58:48Z

@<SCITEGIC>ROOT_PROPERTY
Ligand:MaximumNumberOfAtoms
SciTegic.value.IntegerValue
100

@<SCITEGIC>ROOT_PROPERTY
Ligand:HydrogenAtomsCountTowardsMaximum
SciTegic.value.BooleanValue
FALSE

@<TRIPOS>MOLECULE
2_bond_rotate_all.sd
   31    33     0 0 0
SMALL
USER_CHARGES


@<TRIPOS>ATOM
      1 C1            0.000000    0.000000   -2.977000 C.2      1 SUBUNIT    0.0268
      2 N2           -0.702300    1.216400   -2.977000 N.2      1 SUBUNIT   -0.2639
      3 C3           -2.106800    1.216400   -2.977000 C.2      1 SUBUNIT    0.0393
      4 C4           -2.809000    0.000000   -2.977000 C.2      1 SUBUNIT    0.0557
      5 C5           -2.106800   -1.216400   -2.977000 C.2      1 SUBUNIT   -0.0466
      6 C6           -0.702200   -1.216400   -2.977000 C.2      1 SUBUNIT   -0.0430
      7 H7            1.103400    0.000000   -2.977000 H        1 SUBUNIT    0.0840
      8 H8           -2.658500    2.172000   -2.977000 H        1 SUBUNIT    0.0848
      9 H9           -2.658500   -2.171900   -2.977000 H        1 SUBUNIT    0.0632
     10 H10          -0.150500   -2.172000   -2.977000 H        1 SUBUNIT    0.0639
     11 C11          -4.137600   -0.014300   -2.977000 C.2      1 SUBUNIT    0.2487
     12 N12          -4.808500   -0.619900   -1.940600 N.am     1 SUBUNIT   -0.2816
     13 O13          -4.752100    0.509800   -3.896200 O.2      1 SUBUNIT   -0.2715
     14 H14          -4.196200   -1.022200   -1.232400 H        1 SUBUNIT    0.1560
     15 C15          -6.122300   -0.635400   -1.938300 C.2      1 SUBUNIT    0.0291
     16 C16          -6.832600   -0.643800   -0.726500 C.2      1 SUBUNIT   -0.0552
     17 C17          -8.220900   -0.660100   -3.168500 C.2      1 SUBUNIT   -0.0749
     18 C18          -6.816500   -0.643600   -3.159200 C.2      1 SUBUNIT   -0.0444
     19 H19          -6.287100   -0.637300    0.232700 H        1 SUBUNIT    0.0602
     20 H20          -8.766300   -0.666600   -4.127600 H        1 SUBUNIT    0.0583
     21 H21          -6.258500   -0.637000   -4.111200 H        1 SUBUNIT    0.0639
     22 C22         -10.284000   -0.684500   -1.995300 C.2      1 SUBUNIT   -0.0756
     23 C23         -10.994200   -0.692800   -0.783600 C.2      1 SUBUNIT   -0.0517
     24 C24         -10.300100   -0.684600    0.437400 C.2      1 SUBUNIT    0.0138
     25 C25          -8.895700   -0.668100    0.446600 C.2      1 SUBUNIT   -0.0624
     26 C26          -8.185400   -0.659700   -0.765100 C.3      1 SUBUNIT    0.0480
     27 C27          -8.879600   -0.667900   -1.986100 C.3      1 SUBUNIT    0.0452
     28 H28         -10.829300   -0.690900   -2.954500 H        1 SUBUNIT    0.0583
     29 H29         -12.097600   -0.705800   -0.791000 H        1 SUBUNIT    0.0631
     30 Br30        -11.275300   -0.696100    2.101100 Br       1 SUBUNIT   -0.0512
     31 H31          -8.350300   -0.661700    1.405800 H        1 SUBUNIT    0.0594
@<TRIPOS>BOND
     1    1    2 2
     2    1    6 1
     3    1    7 1
     4    2    3 1
     5    3    4 2
     6    3    8 1
     7    4    5 1
     8    4   11 1
     9    5    6 2
    10    5    9 1
    11    6   10 1
    12   11   12 1
    13   11   13 2
    14   12   14 1
    15   12   15 1
    16   15   16 2
    17   15   18 1
    18   16   26 1
    19   16   19 1
    20   17   27 1
    21   17   18 2
    22   17   20 1
    23   18   21 1
    24   22   23 2
    25   22   27 1
    26   22   28 1
    27   23   24 1
    28   23   29 1
    29   24   25 2
    30   24   30 1
    31   25   26 1
    32   25   31 1
    33   26   27 1
@<SCITEGIC>ATOM_PROPERTY
Formal Charge
SciTegic.value.StringValue
1 0
2 0
3 0
4 0
5 0
6 0
7 0
8 0
9 0
10 0
11 0
12 0
13 0
14 0
15 0
16 0
17 0
18 0
19 0
20 0
21 0
22 0
23 0
24 0
25 0
26 0
27 0
28 0
29 0
30 0
31 0

@<SCITEGIC>ATOM_PROPERTY
pdb_tempFactor
SciTegic.value.DoubleValue
1 0.00
2 0.00
3 0.00
4 0.00
5 0.00
6 0.00
7 0.00
8 0.00
9 0.00
10 0.00
11 0.00
12 0.00
13 0.00
14 0.00
15 0.00
16 0.00
17 0.00
18 0.00
19 0.00
20 0.00
21 0.00
22 0.00
23 0.00
24 0.00
25 0.00
26 0.00
27 0.00
28 0.00
29 0.00
30 0.00
31 0.00

@<SCITEGIC>ATOM_PROPERTY
pdb_occupancy
SciTegic.value.DoubleValue
1 1.00
2 1.00
3 1.00
4 1.00
5 1.00
6 1.00
7 1.00
8 1.00
9 1.00
10 1.00
11 1.00
12 1.00
13 1.00
14 1.00
15 1.00
16 1.00
17 1.00
18 1.00
19 1.00
20 1.00
21 1.00
22 1.00
23 1.00
24 1.00
25 1.00
26 1.00
27 1.00
28 1.00
29 1.00
30 1.00
31 1.00

#	copyright 2023 drugdesign.org
#	Creation time:	2024-01-11T10:58:48Z

@<SCITEGIC>ROOT_PROPERTY
Ligand:MaximumNumberOfAtoms
SciTegic.value.IntegerValue
100

@<SCITEGIC>ROOT_PROPERTY
Ligand:HydrogenAtomsCountTowardsMaximum
SciTegic.value.BooleanValue
FALSE

@<TRIPOS>MOLECULE
2_bond_rotate_all.sd
   31    33     0 0 0
SMALL
USER_CHARGES


@<TRIPOS>ATOM
      1 C1            0.000000    0.000000   -2.977000 C.2      1 SUBUNIT    0.0268
      2 N2           -0.702300    1.216400   -2.977000 N.2      1 SUBUNIT   -0.2639
      3 C3           -2.106800    1.216400   -2.977000 C.2      1 SUBUNIT    0.0393
      4 C4           -2.809000    0.000000   -2.977000 C.2      1 SUBUNIT    0.0557
      5 C5           -2.106800   -1.216400   -2.977000 C.2      1 SUBUNIT   -0.0466
      6 C6           -0.702200   -1.216400   -2.977000 C.2      1 SUBUNIT   -0.0430
      7 H7            1.103400    0.000000   -2.977000 H        1 SUBUNIT    0.0840
      8 H8           -2.658500    2.172000   -2.977000 H        1 SUBUNIT    0.0848
      9 H9           -2.658500   -2.171900   -2.977000 H        1 SUBUNIT    0.0632
     10 H10          -0.150500   -2.172000   -2.977000 H        1 SUBUNIT    0.0639
     11 C11          -4.137600   -0.014300   -2.977000 C.2      1 SUBUNIT    0.2487
     12 N12          -4.808500   -0.619900   -1.940600 N.am     1 SUBUNIT   -0.2816
     13 O13          -4.752100    0.509800   -3.896200 O.2      1 SUBUNIT   -0.2715
     14 H14          -4.196200   -1.022200   -1.232400 H        1 SUBUNIT    0.1560
     15 C15          -6.122300   -0.635400   -1.938300 C.2      1 SUBUNIT    0.0291
     16 C16          -6.840000   -0.038600   -0.888700 C.2      1 SUBUNIT   -0.0552
     17 C17          -8.213400   -1.277100   -3.003200 C.2      1 SUBUNIT   -0.0749
     18 C18          -6.809000   -1.254600   -2.995500 C.2      1 SUBUNIT   -0.0444
     19 H19          -6.300400    0.447900   -0.058100 H        1 SUBUNIT    0.0602
     20 H20          -8.752800   -1.763500   -3.833700 H        1 SUBUNIT    0.0583
     21 H21          -6.245200   -1.723500   -3.820000 H        1 SUBUNIT    0.0639
     22 C22         -10.283600   -0.716700   -1.986700 C.2      1 SUBUNIT   -0.0756
     23 C23         -11.001200   -0.119900   -0.937100 C.2      1 SUBUNIT   -0.0517
     24 C24         -10.314600    0.499300    0.120100 C.2      1 SUBUNIT    0.0138
     25 C25          -8.910300    0.521700    0.127700 C.2      1 SUBUNIT   -0.0624
     26 C26          -8.192500   -0.075000   -0.921800 C.3      1 SUBUNIT    0.0480
     27 C27          -8.879200   -0.694300   -1.979000 C.3      1 SUBUNIT    0.0452
     28 H28         -10.823000   -1.203200   -2.817200 H        1 SUBUNIT    0.0583
     29 H29         -12.104600   -0.137600   -0.943200 H        1 SUBUNIT    0.0631
     30 Br30        -11.300000    1.318700    1.561200 Br       1 SUBUNIT   -0.0512
     31 H31          -8.370800    1.008200    0.958300 H        1 SUBUNIT    0.0594
@<TRIPOS>BOND
     1    1    2 2
     2    1    6 1
     3    1    7 1
     4    2    3 1
     5    3    4 2
     6    3    8 1
     7    4    5 1
     8    4   11 1
     9    5    6 2
    10    5    9 1
    11    6   10 1
    12   11   12 1
    13   11   13 2
    14   12   14 1
    15   12   15 1
    16   15   16 2
    17   15   18 1
    18   16   26 1
    19   16   19 1
    20   17   27 1
    21   17   18 2
    22   17   20 1
    23   18   21 1
    24   22   23 2
    25   22   27 1
    26   22   28 1
    27   23   24 1
    28   23   29 1
    29   24   25 2
    30   24   30 1
    31   25   26 1
    32   25   31 1
    33   26   27 1
@<SCITEGIC>ATOM_PROPERTY
Formal Charge
SciTegic.value.StringValue
1 0
2 0
3 0
4 0
5 0
6 0
7 0
8 0
9 0
10 0
11 0
12 0
13 0
14 0
15 0
16 0
17 0
18 0
19 0
20 0
21 0
22 0
23 0
24 0
25 0
26 0
27 0
28 0
29 0
30 0
31 0

@<SCITEGIC>ATOM_PROPERTY
pdb_tempFactor
SciTegic.value.DoubleValue
1 0.00
2 0.00
3 0.00
4 0.00
5 0.00
6 0.00
7 0.00
8 0.00
9 0.00
10 0.00
11 0.00
12 0.00
13 0.00
14 0.00
15 0.00
16 0.00
17 0.00
18 0.00
19 0.00
20 0.00
21 0.00
22 0.00
23 0.00
24 0.00
25 0.00
26 0.00
27 0.00
28 0.00
29 0.00
30 0.00
31 0.00

@<SCITEGIC>ATOM_PROPERTY
pdb_occupancy
SciTegic.value.DoubleValue
1 1.00
2 1.00
3 1.00
4 1.00
5 1.00
6 1.00
7 1.00
8 1.00
9 1.00
10 1.00
11 1.00
12 1.00
13 1.00
14 1.00
15 1.00
16 1.00
17 1.00
18 1.00
19 1.00
20 1.00
21 1.00
22 1.00
23 1.00
24 1.00
25 1.00
26 1.00
27 1.00
28 1.00
29 1.00
30 1.00
31 1.00

#	copyright 2023 drugdesign.org
#	Creation time:	2024-01-11T10:58:48Z

@<SCITEGIC>ROOT_PROPERTY
Ligand:MaximumNumberOfAtoms
SciTegic.value.IntegerValue
100

@<SCITEGIC>ROOT_PROPERTY
Ligand:HydrogenAtomsCountTowardsMaximum
SciTegic.value.BooleanValue
FALSE

@<TRIPOS>MOLECULE
2_bond_rotate_all.sd
   31    33     0 0 0
SMALL
USER_CHARGES


@<TRIPOS>ATOM
      1 C1            0.000000    0.000000   -2.977000 C.2      1 SUBUNIT    0.0268
      2 N2           -0.702300    1.216400   -2.977000 N.2      1 SUBUNIT   -0.2639
      3 C3           -2.106800    1.216400   -2.977000 C.2      1 SUBUNIT    0.0393
      4 C4           -2.809000    0.000000   -2.977000 C.2      1 SUBUNIT    0.0557
      5 C5           -2.106800   -1.216400   -2.977000 C.2      1 SUBUNIT   -0.0466
      6 C6           -0.702200   -1.216400   -2.977000 C.2      1 SUBUNIT   -0.0430
      7 H7            1.103400    0.000000   -2.977000 H        1 SUBUNIT    0.0840
      8 H8           -2.658500    2.172000   -2.977000 H        1 SUBUNIT    0.0848
      9 H9           -2.658500   -2.171900   -2.977000 H        1 SUBUNIT    0.0632
     10 H10          -0.150500   -2.172000   -2.977000 H        1 SUBUNIT    0.0639
     11 C11          -4.137600   -0.014300   -2.977000 C.2      1 SUBUNIT    0.2487
     12 N12          -4.808500   -0.619900   -1.940600 N.am     1 SUBUNIT   -0.2816
     13 O13          -4.752100    0.509800   -3.896200 O.2      1 SUBUNIT   -0.2715
     14 H14          -4.196200   -1.022200   -1.232400 H        1 SUBUNIT    0.1560
     15 C15          -6.122300   -0.635400   -1.938300 C.2      1 SUBUNIT    0.0291
     16 C16          -6.846000    0.404500   -1.331700 C.2      1 SUBUNIT   -0.0552
     17 C17          -8.207200   -1.728700   -2.551500 C.2      1 SUBUNIT   -0.0749
     18 C18          -6.802900   -1.702000   -2.548100 C.2      1 SUBUNIT   -0.0444
     19 H19          -6.311200    1.242400   -0.852600 H        1 SUBUNIT    0.0602
     20 H20          -8.741900   -2.566600   -3.030600 H        1 SUBUNIT    0.0583
     21 H21          -6.234400   -2.518900   -3.024600 H        1 SUBUNIT    0.0639
     22 C22         -10.283200   -0.740400   -1.963000 C.2      1 SUBUNIT   -0.0756
     23 C23         -11.006900    0.299500   -1.356500 C.2      1 SUBUNIT   -0.0517
     24 C24         -10.326400    1.366000   -0.746700 C.2      1 SUBUNIT    0.0138
     25 C25          -8.922100    1.392700   -0.743300 C.2      1 SUBUNIT   -0.0624
     26 C26          -8.198400    0.353000   -1.349800 C.3      1 SUBUNIT    0.0480
     27 C27          -8.879000   -0.713700   -1.959700 C.3      1 SUBUNIT    0.0452
     28 H28         -10.817900   -1.578300   -2.442200 H        1 SUBUNIT    0.0583
     29 H29         -12.110200    0.278400   -1.359200 H        1 SUBUNIT    0.0631
     30 Br30        -11.320100    2.793700    0.086100 Br       1 SUBUNIT   -0.0512
     31 H31          -8.387400    2.230600   -0.264200 H        1 SUBUNIT    0.0594
@<TRIPOS>BOND
     1    1    2 2
     2    1    6 1
     3    1    7 1
     4    2    3 1
     5    3    4 2
     6    3    8 1
     7    4    5 1
     8    4   11 1
     9    5    6 2
    10    5    9 1
    11    6   10 1
    12   11   12 1
    13   11   13 2
    14   12   14 1
    15   12   15 1
    16   15   16 2
    17   15   18 1
    18   16   26 1
    19   16   19 1
    20   17   27 1
    21   17   18 2
    22   17   20 1
    23   18   21 1
    24   22   23 2
    25   22   27 1
    26   22   28 1
    27   23   24 1
    28   23   29 1
    29   24   25 2
    30   24   30 1
    31   25   26 1
    32   25   31 1
    33   26   27 1
@<SCITEGIC>ATOM_PROPERTY
Formal Charge
SciTegic.value.StringValue
1 0
2 0
3 0
4 0
5 0
6 0
7 0
8 0
9 0
10 0
11 0
12 0
13 0
14 0
15 0
16 0
17 0
18 0
19 0
20 0
21 0
22 0
23 0
24 0
25 0
26 0
27 0
28 0
29 0
30 0
31 0

@<SCITEGIC>ATOM_PROPERTY
pdb_tempFactor
SciTegic.value.DoubleValue
1 0.00
2 0.00
3 0.00
4 0.00
5 0.00
6 0.00
7 0.00
8 0.00
9 0.00
10 0.00
11 0.00
12 0.00
13 0.00
14 0.00
15 0.00
16 0.00
17 0.00
18 0.00
19 0.00
20 0.00
21 0.00
22 0.00
23 0.00
24 0.00
25 0.00
26 0.00
27 0.00
28 0.00
29 0.00
30 0.00
31 0.00

@<SCITEGIC>ATOM_PROPERTY
pdb_occupancy
SciTegic.value.DoubleValue
1 1.00
2 1.00
3 1.00
4 1.00
5 1.00
6 1.00
7 1.00
8 1.00
9 1.00
10 1.00
11 1.00
12 1.00
13 1.00
14 1.00
15 1.00
16 1.00
17 1.00
18 1.00
19 1.00
20 1.00
21 1.00
22 1.00
23 1.00
24 1.00
25 1.00
26 1.00
27 1.00
28 1.00
29 1.00
30 1.00
31 1.00

#	copyright 2023 drugdesign.org
#	Creation time:	2024-01-11T10:58:48Z

@<SCITEGIC>ROOT_PROPERTY
Ligand:MaximumNumberOfAtoms
SciTegic.value.IntegerValue
100

@<SCITEGIC>ROOT_PROPERTY
Ligand:HydrogenAtomsCountTowardsMaximum
SciTegic.value.BooleanValue
FALSE

@<TRIPOS>MOLECULE
2_bond_rotate_all.sd
   31    33     0 0 0
SMALL
USER_CHARGES


@<TRIPOS>ATOM
      1 C1            0.000000    0.000000   -2.977000 C.2      1 SUBUNIT    0.0268
      2 N2           -0.702300    1.216400   -2.977000 N.2      1 SUBUNIT   -0.2639
      3 C3           -2.106800    1.216400   -2.977000 C.2      1 SUBUNIT    0.0393
      4 C4           -2.809000    0.000000   -2.977000 C.2      1 SUBUNIT    0.0557
      5 C5           -2.106800   -1.216400   -2.977000 C.2      1 SUBUNIT   -0.0466
      6 C6           -0.702200   -1.216400   -2.977000 C.2      1 SUBUNIT   -0.0430
      7 H7            1.103400    0.000000   -2.977000 H        1 SUBUNIT    0.0840
      8 H8           -2.658500    2.172000   -2.977000 H        1 SUBUNIT    0.0848
      9 H9           -2.658500   -2.171900   -2.977000 H        1 SUBUNIT    0.0632
     10 H10          -0.150500   -2.172000   -2.977000 H        1 SUBUNIT    0.0639
     11 C11          -4.137600   -0.014300   -2.977000 C.2      1 SUBUNIT    0.2487
     12 N12          -4.808500   -0.619900   -1.940600 N.am     1 SUBUNIT   -0.2816
     13 O13          -4.752100    0.509800   -3.896200 O.2      1 SUBUNIT   -0.2715
     14 H14          -4.196200   -1.022200   -1.232400 H        1 SUBUNIT    0.1560
     15 C15          -6.122300   -0.635400   -1.938300 C.2      1 SUBUNIT    0.0291
     16 C16          -6.849000    0.566600   -1.937000 C.2      1 SUBUNIT   -0.0552
     17 C17          -8.204200   -1.894000   -1.934500 C.2      1 SUBUNIT   -0.0749
     18 C18          -6.799800   -1.865700   -1.937000 C.2      1 SUBUNIT   -0.0444
     19 H19          -6.316600    1.533100   -1.937900 H        1 SUBUNIT    0.0602
     20 H20          -8.736500   -2.860500   -1.933500 H        1 SUBUNIT    0.0583
     21 H21          -6.229000   -2.810000   -1.938000 H        1 SUBUNIT    0.0639
     22 C22         -10.283100   -0.749000   -1.930800 C.2      1 SUBUNIT   -0.0756
     23 C23         -11.009800    0.453000   -1.929500 C.2      1 SUBUNIT   -0.0517
     24 C24         -10.332200    1.683200   -1.930700 C.2      1 SUBUNIT    0.0138
     25 C25          -8.928000    1.711500   -1.933300 C.2      1 SUBUNIT   -0.0624
     26 C26          -8.201300    0.509600   -1.934500 C.3      1 SUBUNIT    0.0480
     27 C27          -8.878800   -0.720700   -1.933300 C.3      1 SUBUNIT    0.0452
     28 H28         -10.815400   -1.715500   -1.929800 H        1 SUBUNIT    0.0583
     29 H29         -12.113000    0.430600   -1.927500 H        1 SUBUNIT    0.0631
     30 Br30        -11.330000    3.333500   -1.929000 Br       1 SUBUNIT   -0.0512
     31 H31          -8.395700    2.678000   -1.934200 H        1 SUBUNIT    0.0594
@<TRIPOS>BOND
     1    1    2 2
     2    1    6 1
     3    1    7 1
     4    2    3 1
     5    3    4 2
     6    3    8 1
     7    4    5 1
     8    4   11 1
     9    5    6 2
    10    5    9 1
    11    6   10 1
    12   11   12 1
    13   11   13 2
    14   12   14 1
    15   12   15 1
    16   15   16 2
    17   15   18 1
    18   16   26 1
    19   16   19 1
    20   17   27 1
    21   17   18 2
    22   17   20 1
    23   18   21 1
    24   22   23 2
    25   22   27 1
    26   22   28 1
    27   23   24 1
    28   23   29 1
    29   24   25 2
    30   24   30 1
    31   25   26 1
    32   25   31 1
    33   26   27 1
@<SCITEGIC>ATOM_PROPERTY
Formal Charge
SciTegic.value.StringValue
1 0
2 0
3 0
4 0
5 0
6 0
7 0
8 0
9 0
10 0
11 0
12 0
13 0
14 0
15 0
16 0
17 0
18 0
19 0
20 0
21 0
22 0
23 0
24 0
25 0
26 0
27 0
28 0
29 0
30 0
31 0

@<SCITEGIC>ATOM_PROPERTY
pdb_tempFactor
SciTegic.value.DoubleValue
1 0.00
2 0.00
3 0.00
4 0.00
5 0.00
6 0.00
7 0.00
8 0.00
9 0.00
10 0.00
11 0.00
12 0.00
13 0.00
14 0.00
15 0.00
16 0.00
17 0.00
18 0.00
19 0.00
20 0.00
21 0.00
22 0.00
23 0.00
24 0.00
25 0.00
26 0.00
27 0.00
28 0.00
29 0.00
30 0.00
31 0.00

@<SCITEGIC>ATOM_PROPERTY
pdb_occupancy
SciTegic.value.DoubleValue
1 1.00
2 1.00
3 1.00
4 1.00
5 1.00
6 1.00
7 1.00
8 1.00
9 1.00
10 1.00
11 1.00
12 1.00
13 1.00
14 1.00
15 1.00
16 1.00
17 1.00
18 1.00
19 1.00
20 1.00
21 1.00
22 1.00
23 1.00
24 1.00
25 1.00
26 1.00
27 1.00
28 1.00
29 1.00
30 1.00
31 1.00

#	copyright 2023 drugdesign.org
#	Creation time:	2024-01-11T10:58:48Z

@<SCITEGIC>ROOT_PROPERTY
Ligand:MaximumNumberOfAtoms
SciTegic.value.IntegerValue
100

@<SCITEGIC>ROOT_PROPERTY
Ligand:HydrogenAtomsCountTowardsMaximum
SciTegic.value.BooleanValue
FALSE

@<TRIPOS>MOLECULE
2_bond_rotate_all.sd
   31    33     0 0 0
SMALL
USER_CHARGES


@<TRIPOS>ATOM
      1 C1            0.000000    0.000000   -2.977000 C.2      1 SUBUNIT    0.0268
      2 N2           -0.702300    1.216400   -2.977000 N.2      1 SUBUNIT   -0.2639
      3 C3           -2.106800    1.216400   -2.977000 C.2      1 SUBUNIT    0.0393
      4 C4           -2.809000    0.000000   -2.977000 C.2      1 SUBUNIT    0.0557
      5 C5           -2.106800   -1.216400   -2.977000 C.2      1 SUBUNIT   -0.0466
      6 C6           -0.702200   -1.216400   -2.977000 C.2      1 SUBUNIT   -0.0430
      7 H7            1.103400    0.000000   -2.977000 H        1 SUBUNIT    0.0840
      8 H8           -2.658500    2.172000   -2.977000 H        1 SUBUNIT    0.0848
      9 H9           -2.658500   -2.171900   -2.977000 H        1 SUBUNIT    0.0632
     10 H10          -0.150500   -2.172000   -2.977000 H        1 SUBUNIT    0.0639
     11 C11          -4.137600   -0.014300   -2.977000 C.2      1 SUBUNIT    0.2487
     12 N12          -4.808500   -0.619900   -1.940600 N.am     1 SUBUNIT   -0.2816
     13 O13          -4.752100    0.509800   -3.896200 O.2      1 SUBUNIT   -0.2715
     14 H14          -4.196200   -1.022200   -1.232400 H        1 SUBUNIT    0.1560
     15 C15          -6.122300   -0.635400   -1.938300 C.2      1 SUBUNIT    0.0291
     16 C16          -6.848200    0.404400   -2.542200 C.2      1 SUBUNIT   -0.0552
     17 C17          -8.205000   -1.728700   -1.317500 C.2      1 SUBUNIT   -0.0749
     18 C18          -6.800700   -1.702000   -1.325900 C.2      1 SUBUNIT   -0.0444
     19 H19          -6.315100    1.242300   -3.023300 H        1 SUBUNIT    0.0602
     20 H20          -8.738000   -2.566500   -0.836400 H        1 SUBUNIT    0.0583
     21 H21          -6.230500   -2.518800   -0.851400 H        1 SUBUNIT    0.0639
     22 C22         -10.283100   -0.740400   -1.898500 C.2      1 SUBUNIT   -0.0756
     23 C23         -11.009000    0.299400   -2.502400 C.2      1 SUBUNIT   -0.0517
     24 C24         -10.330600    1.366000   -3.114800 C.2      1 SUBUNIT    0.0138
     25 C25          -8.926400    1.392700   -3.123200 C.2      1 SUBUNIT   -0.0624
     26 C26          -8.200500    0.352900   -2.519300 C.3      1 SUBUNIT    0.0480
     27 C27          -8.878900   -0.713700   -1.906900 C.3      1 SUBUNIT    0.0452
     28 H28         -10.816100   -1.578200   -1.417400 H        1 SUBUNIT    0.0583
     29 H29         -12.112300    0.278300   -2.495800 H        1 SUBUNIT    0.0631
     30 Br30        -11.327300    2.793600   -3.944000 Br       1 SUBUNIT   -0.0512
     31 H31          -8.393400    2.230600   -3.604200 H        1 SUBUNIT    0.0594
@<TRIPOS>BOND
     1    1    2 2
     2    1    6 1
     3    1    7 1
     4    2    3 1
     5    3    4 2
     6    3    8 1
     7    4    5 1
     8    4   11 1
     9    5    6 2
    10    5    9 1
    11    6   10 1
    12   11   12 1
    13   11   13 2
    14   12   14 1
    15   12   15 1
    16   15   16 2
    17   15   18 1
    18   16   26 1
    19   16   19 1
    20   17   27 1
    21   17   18 2
    22   17   20 1
    23   18   21 1
    24   22   23 2
    25   22   27 1
    26   22   28 1
    27   23   24 1
    28   23   29 1
    29   24   25 2
    30   24   30 1
    31   25   26 1
    32   25   31 1
    33   26   27 1
@<SCITEGIC>ATOM_PROPERTY
Formal Charge
SciTegic.value.StringValue
1 0
2 0
3 0
4 0
5 0
6 0
7 0
8 0
9 0
10 0
11 0
12 0
13 0
14 0
15 0
16 0
17 0
18 0
19 0
20 0
21 0
22 0
23 0
24 0
25 0
26 0
27 0
28 0
29 0
30 0
31 0

@<SCITEGIC>ATOM_PROPERTY
pdb_tempFactor
SciTegic.value.DoubleValue
1 0.00
2 0.00
3 0.00
4 0.00
5 0.00
6 0.00
7 0.00
8 0.00
9 0.00
10 0.00
11 0.00
12 0.00
13 0.00
14 0.00
15 0.00
16 0.00
17 0.00
18 0.00
19 0.00
20 0.00
21 0.00
22 0.00
23 0.00
24 0.00
25 0.00
26 0.00
27 0.00
28 0.00
29 0.00
30 0.00
31 0.00

@<SCITEGIC>ATOM_PROPERTY
pdb_occupancy
SciTegic.value.DoubleValue
1 1.00
2 1.00
3 1.00
4 1.00
5 1.00
6 1.00
7 1.00
8 1.00
9 1.00
10 1.00
11 1.00
12 1.00
13 1.00
14 1.00
15 1.00
16 1.00
17 1.00
18 1.00
19 1.00
20 1.00
21 1.00
22 1.00
23 1.00
24 1.00
25 1.00
26 1.00
27 1.00
28 1.00
29 1.00
30 1.00
31 1.00

#	copyright 2023 drugdesign.org
#	Creation time:	2024-01-11T10:58:48Z

@<SCITEGIC>ROOT_PROPERTY
Ligand:MaximumNumberOfAtoms
SciTegic.value.IntegerValue
100

@<SCITEGIC>ROOT_PROPERTY
Ligand:HydrogenAtomsCountTowardsMaximum
SciTegic.value.BooleanValue
FALSE

@<TRIPOS>MOLECULE
2_bond_rotate_all.sd
   31    33     0 0 0
SMALL
USER_CHARGES


@<TRIPOS>ATOM
      1 C1            0.000000    0.000000   -2.977000 C.2      1 SUBUNIT    0.0268
      2 N2           -0.702300    1.216400   -2.977000 N.2      1 SUBUNIT   -0.2639
      3 C3           -2.106800    1.216400   -2.977000 C.2      1 SUBUNIT    0.0393
      4 C4           -2.809000    0.000000   -2.977000 C.2      1 SUBUNIT    0.0557
      5 C5           -2.106800   -1.216400   -2.977000 C.2      1 SUBUNIT   -0.0466
      6 C6           -0.702200   -1.216400   -2.977000 C.2      1 SUBUNIT   -0.0430
      7 H7            1.103400    0.000000   -2.977000 H        1 SUBUNIT    0.0840
      8 H8           -2.658500    2.172000   -2.977000 H        1 SUBUNIT    0.0848
      9 H9           -2.658500   -2.171900   -2.977000 H        1 SUBUNIT    0.0632
     10 H10          -0.150500   -2.172000   -2.977000 H        1 SUBUNIT    0.0639
     11 C11          -4.137600   -0.014300   -2.977000 C.2      1 SUBUNIT    0.2487
     12 N12          -4.814900   -0.021600   -1.780300 N.am     1 SUBUNIT   -0.2816
     13 O13          -4.746400   -0.020800   -4.038400 O.2      1 SUBUNIT   -0.2715
     14 H14          -4.207000   -0.015000   -0.962500 H        1 SUBUNIT    0.1560
     15 C15          -6.128800   -0.035700   -1.777600 C.2      1 SUBUNIT    0.0291
     16 C16          -6.843700   -0.043400   -2.986500 C.2      1 SUBUNIT   -0.0552
     17 C17          -8.222600   -0.058200   -0.539200 C.2      1 SUBUNIT   -0.0749
     18 C18          -6.818200   -0.043100   -0.553900 C.2      1 SUBUNIT   -0.0444
     19 H19          -6.302000   -0.037600   -3.947900 H        1 SUBUNIT    0.0602
     20 H20          -8.764300   -0.064000    0.422000 H        1 SUBUNIT    0.0583
     21 H21          -6.256500   -0.037100    0.395900 H        1 SUBUNIT    0.0639
     22 C22         -10.290200   -0.080400   -1.704300 C.2      1 SUBUNIT   -0.0756
     23 C23         -11.005200   -0.088100   -2.913300 C.2      1 SUBUNIT   -0.0517
     24 C24         -10.315700   -0.080700   -4.136900 C.2      1 SUBUNIT    0.0138
     25 C25          -8.911400   -0.065600   -4.151600 C.2      1 SUBUNIT   -0.0624
     26 C26          -8.196400   -0.057900   -2.942700 C.3      1 SUBUNIT    0.0480
     27 C27          -8.885800   -0.065300   -1.719000 C.3      1 SUBUNIT    0.0452
     28 H28         -10.831800   -0.086300   -0.743000 H        1 SUBUNIT    0.0583
     29 H29         -12.108500   -0.100000   -2.901700 H        1 SUBUNIT    0.0631
     30 Br30        -11.297400   -0.091300   -5.796900 Br       1 SUBUNIT   -0.0512
     31 H31          -8.369700   -0.059800   -5.112900 H        1 SUBUNIT    0.0594
@<TRIPOS>BOND
     1    1    2 2
     2    1    6 1
     3    1    7 1
     4    2    3 1
     5    3    4 2
     6    3    8 1
     7    4    5 1
     8    4   11 1
     9    5    6 2
    10    5    9 1
    11    6   10 1
    12   11   12 1
    13   11   13 2
    14   12   14 1
    15   12   15 1
    16   15   16 2
    17   15   18 1
    18   16   26 1
    19   16   19 1
    20   17   27 1
    21   17   18 2
    22   17   20 1
    23   18   21 1
    24   22   23 2
    25   22   27 1
    26   22   28 1
    27   23   24 1
    28   23   29 1
    29   24   25 2
    30   24   30 1
    31   25   26 1
    32   25   31 1
    33   26   27 1
@<SCITEGIC>ATOM_PROPERTY
Formal Charge
SciTegic.value.StringValue
1 0
2 0
3 0
4 0
5 0
6 0
7 0
8 0
9 0
10 0
11 0
12 0
13 0
14 0
15 0
16 0
17 0
18 0
19 0
20 0
21 0
22 0
23 0
24 0
25 0
26 0
27 0
28 0
29 0
30 0
31 0

@<SCITEGIC>ATOM_PROPERTY
pdb_tempFactor
SciTegic.value.DoubleValue
1 0.00
2 0.00
3 0.00
4 0.00
5 0.00
6 0.00
7 0.00
8 0.00
9 0.00
10 0.00
11 0.00
12 0.00
13 0.00
14 0.00
15 0.00
16 0.00
17 0.00
18 0.00
19 0.00
20 0.00
21 0.00
22 0.00
23 0.00
24 0.00
25 0.00
26 0.00
27 0.00
28 0.00
29 0.00
30 0.00
31 0.00

@<SCITEGIC>ATOM_PROPERTY
pdb_occupancy
SciTegic.value.DoubleValue
1 1.00
2 1.00
3 1.00
4 1.00
5 1.00
6 1.00
7 1.00
8 1.00
9 1.00
10 1.00
11 1.00
12 1.00
13 1.00
14 1.00
15 1.00
16 1.00
17 1.00
18 1.00
19 1.00
20 1.00
21 1.00
22 1.00
23 1.00
24 1.00
25 1.00
26 1.00
27 1.00
28 1.00
29 1.00
30 1.00
31 1.00

#	copyright 2023 drugdesign.org
#	Creation time:	2024-01-11T10:58:48Z

@<SCITEGIC>ROOT_PROPERTY
Ligand:MaximumNumberOfAtoms
SciTegic.value.IntegerValue
100

@<SCITEGIC>ROOT_PROPERTY
Ligand:HydrogenAtomsCountTowardsMaximum
SciTegic.value.BooleanValue
FALSE

@<TRIPOS>MOLECULE
2_bond_rotate_all.sd
   31    33     0 0 0
SMALL
USER_CHARGES


@<TRIPOS>ATOM
      1 C1            0.000000    0.000000   -2.977000 C.2      1 SUBUNIT    0.0268
      2 N2           -0.702300    1.216400   -2.977000 N.2      1 SUBUNIT   -0.2639
      3 C3           -2.106800    1.216400   -2.977000 C.2      1 SUBUNIT    0.0393
      4 C4           -2.809000    0.000000   -2.977000 C.2      1 SUBUNIT    0.0557
      5 C5           -2.106800   -1.216400   -2.977000 C.2      1 SUBUNIT   -0.0466
      6 C6           -0.702200   -1.216400   -2.977000 C.2      1 SUBUNIT   -0.0430
      7 H7            1.103400    0.000000   -2.977000 H        1 SUBUNIT    0.0840
      8 H8           -2.658500    2.172000   -2.977000 H        1 SUBUNIT    0.0848
      9 H9           -2.658500   -2.171900   -2.977000 H        1 SUBUNIT    0.0632
     10 H10          -0.150500   -2.172000   -2.977000 H        1 SUBUNIT    0.0639
     11 C11          -4.137600   -0.014300   -2.977000 C.2      1 SUBUNIT    0.2487
     12 N12          -4.814900   -0.021600   -1.780300 N.am     1 SUBUNIT   -0.2816
     13 O13          -4.746400   -0.020800   -4.038400 O.2      1 SUBUNIT   -0.2715
     14 H14          -4.207000   -0.015000   -0.962500 H        1 SUBUNIT    0.1560
     15 C15          -6.128800   -0.035700   -1.777600 C.2      1 SUBUNIT    0.0291
     16 C16          -6.836900   -0.648600   -2.824400 C.2      1 SUBUNIT   -0.0552
     17 C17          -8.229600    0.558800   -0.704500 C.2      1 SUBUNIT   -0.0749
     18 C18          -6.825100    0.568000   -0.717600 C.2      1 SUBUNIT   -0.0444
     19 H19          -6.289700   -1.122800   -3.657100 H        1 SUBUNIT    0.0602
     20 H20          -8.776700    1.032900    0.128100 H        1 SUBUNIT    0.0583
     21 H21          -6.268800    1.049400    0.104700 H        1 SUBUNIT    0.0639
     22 C22         -10.290600   -0.048200   -1.713000 C.2      1 SUBUNIT   -0.0756
     23 C23         -10.998700   -0.661000   -2.759800 C.2      1 SUBUNIT   -0.0517
     24 C24         -10.302300   -1.264700   -3.819700 C.2      1 SUBUNIT    0.0138
     25 C25          -8.897900   -1.255500   -3.832800 C.2      1 SUBUNIT   -0.0624
     26 C26          -8.189800   -0.642600   -2.786000 C.3      1 SUBUNIT    0.0480
     27 C27          -8.886100   -0.038900   -1.726100 C.3      1 SUBUNIT    0.0452
     28 H28         -10.837600    0.426100   -0.880300 H        1 SUBUNIT    0.0583
     29 H29         -12.102100   -0.668200   -2.749400 H        1 SUBUNIT    0.0631
     30 Br30        -11.274600   -2.106200   -5.256900 Br       1 SUBUNIT   -0.0512
     31 H31          -8.350900   -1.729700   -4.665400 H        1 SUBUNIT    0.0594
@<TRIPOS>BOND
     1    1    2 2
     2    1    6 1
     3    1    7 1
     4    2    3 1
     5    3    4 2
     6    3    8 1
     7    4    5 1
     8    4   11 1
     9    5    6 2
    10    5    9 1
    11    6   10 1
    12   11   12 1
    13   11   13 2
    14   12   14 1
    15   12   15 1
    16   15   16 2
    17   15   18 1
    18   16   26 1
    19   16   19 1
    20   17   27 1
    21   17   18 2
    22   17   20 1
    23   18   21 1
    24   22   23 2
    25   22   27 1
    26   22   28 1
    27   23   24 1
    28   23   29 1
    29   24   25 2
    30   24   30 1
    31   25   26 1
    32   25   31 1
    33   26   27 1
@<SCITEGIC>ATOM_PROPERTY
Formal Charge
SciTegic.value.StringValue
1 0
2 0
3 0
4 0
5 0
6 0
7 0
8 0
9 0
10 0
11 0
12 0
13 0
14 0
15 0
16 0
17 0
18 0
19 0
20 0
21 0
22 0
23 0
24 0
25 0
26 0
27 0
28 0
29 0
30 0
31 0

@<SCITEGIC>ATOM_PROPERTY
pdb_tempFactor
SciTegic.value.DoubleValue
1 0.00
2 0.00
3 0.00
4 0.00
5 0.00
6 0.00
7 0.00
8 0.00
9 0.00
10 0.00
11 0.00
12 0.00
13 0.00
14 0.00
15 0.00
16 0.00
17 0.00
18 0.00
19 0.00
20 0.00
21 0.00
22 0.00
23 0.00
24 0.00
25 0.00
26 0.00
27 0.00
28 0.00
29 0.00
30 0.00
31 0.00

@<SCITEGIC>ATOM_PROPERTY
pdb_occupancy
SciTegic.value.DoubleValue
1 1.00
2 1.00
3 1.00
4 1.00
5 1.00
6 1.00
7 1.00
8 1.00
9 1.00
10 1.00
11 1.00
12 1.00
13 1.00
14 1.00
15 1.00
16 1.00
17 1.00
18 1.00
19 1.00
20 1.00
21 1.00
22 1.00
23 1.00
24 1.00
25 1.00
26 1.00
27 1.00
28 1.00
29 1.00
30 1.00
31 1.00

#	copyright 2023 drugdesign.org
#	Creation time:	2024-01-11T10:58:48Z

@<SCITEGIC>ROOT_PROPERTY
Ligand:MaximumNumberOfAtoms
SciTegic.value.IntegerValue
100

@<SCITEGIC>ROOT_PROPERTY
Ligand:HydrogenAtomsCountTowardsMaximum
SciTegic.value.BooleanValue
FALSE

@<TRIPOS>MOLECULE
2_bond_rotate_all.sd
   31    33     0 0 0
SMALL
USER_CHARGES


@<TRIPOS>ATOM
      1 C1            0.000000    0.000000   -2.977000 C.2      1 SUBUNIT    0.0268
      2 N2           -0.702300    1.216400   -2.977000 N.2      1 SUBUNIT   -0.2639
      3 C3           -2.106800    1.216400   -2.977000 C.2      1 SUBUNIT    0.0393
      4 C4           -2.809000    0.000000   -2.977000 C.2      1 SUBUNIT    0.0557
      5 C5           -2.106800   -1.216400   -2.977000 C.2      1 SUBUNIT   -0.0466
      6 C6           -0.702200   -1.216400   -2.977000 C.2      1 SUBUNIT   -0.0430
      7 H7            1.103400    0.000000   -2.977000 H        1 SUBUNIT    0.0840
      8 H8           -2.658500    2.172000   -2.977000 H        1 SUBUNIT    0.0848
      9 H9           -2.658500   -2.171900   -2.977000 H        1 SUBUNIT    0.0632
     10 H10          -0.150500   -2.172000   -2.977000 H        1 SUBUNIT    0.0639
     11 C11          -4.137600   -0.014300   -2.977000 C.2      1 SUBUNIT    0.2487
     12 N12          -4.814900   -0.021600   -1.780300 N.am     1 SUBUNIT   -0.2816
     13 O13          -4.746400   -0.020800   -4.038400 O.2      1 SUBUNIT   -0.2715
     14 H14          -4.207000   -0.015000   -0.962500 H        1 SUBUNIT    0.1560
     15 C15          -6.128800   -0.035700   -1.777600 C.2      1 SUBUNIT    0.0291
     16 C16          -6.831200   -1.091600   -2.381300 C.2      1 SUBUNIT   -0.0552
     17 C17          -8.235400    1.010400   -1.156200 C.2      1 SUBUNIT   -0.0749
     18 C18          -6.830800    1.015300   -1.165000 C.2      1 SUBUNIT   -0.0444
     19 H19          -6.279500   -1.917300   -2.862500 H        1 SUBUNIT    0.0602
     20 H20          -8.787000    1.836000   -0.675000 H        1 SUBUNIT    0.0583
     21 H21          -6.279000    1.844800   -0.690700 H        1 SUBUNIT    0.0639
     22 C22         -10.290900   -0.024500   -1.736600 C.2      1 SUBUNIT   -0.0756
     23 C23         -10.993300   -1.080400   -2.340400 C.2      1 SUBUNIT   -0.0517
     24 C24         -10.291200   -2.131400   -2.952900 C.2      1 SUBUNIT    0.0138
     25 C25          -8.886700   -2.126500   -2.961700 C.2      1 SUBUNIT   -0.0624
     26 C26          -8.184300   -1.070600   -2.358000 C.3      1 SUBUNIT    0.0480
     27 C27          -8.886400   -0.019600   -1.745400 C.3      1 SUBUNIT    0.0452
     28 H28         -10.842400    0.801100   -1.255400 H        1 SUBUNIT    0.0583
     29 H29         -12.096700   -1.084200   -2.333400 H        1 SUBUNIT    0.0631
     30 Br30        -11.255700   -3.581200   -3.781800 Br       1 SUBUNIT   -0.0512
     31 H31          -8.335200   -2.952100   -3.442900 H        1 SUBUNIT    0.0594
@<TRIPOS>BOND
     1    1    2 2
     2    1    6 1
     3    1    7 1
     4    2    3 1
     5    3    4 2
     6    3    8 1
     7    4    5 1
     8    4   11 1
     9    5    6 2
    10    5    9 1
    11    6   10 1
    12   11   12 1
    13   11   13 2
    14   12   14 1
    15   12   15 1
    16   15   16 2
    17   15   18 1
    18   16   26 1
    19   16   19 1
    20   17   27 1
    21   17   18 2
    22   17   20 1
    23   18   21 1
    24   22   23 2
    25   22   27 1
    26   22   28 1
    27   23   24 1
    28   23   29 1
    29   24   25 2
    30   24   30 1
    31   25   26 1
    32   25   31 1
    33   26   27 1
@<SCITEGIC>ATOM_PROPERTY
Formal Charge
SciTegic.value.StringValue
1 0
2 0
3 0
4 0
5 0
6 0
7 0
8 0
9 0
10 0
11 0
12 0
13 0
14 0
15 0
16 0
17 0
18 0
19 0
20 0
21 0
22 0
23 0
24 0
25 0
26 0
27 0
28 0
29 0
30 0
31 0

@<SCITEGIC>ATOM_PROPERTY
pdb_tempFactor
SciTegic.value.DoubleValue
1 0.00
2 0.00
3 0.00
4 0.00
5 0.00
6 0.00
7 0.00
8 0.00
9 0.00
10 0.00
11 0.00
12 0.00
13 0.00
14 0.00
15 0.00
16 0.00
17 0.00
18 0.00
19 0.00
20 0.00
21 0.00
22 0.00
23 0.00
24 0.00
25 0.00
26 0.00
27 0.00
28 0.00
29 0.00
30 0.00
31 0.00

@<SCITEGIC>ATOM_PROPERTY
pdb_occupancy
SciTegic.value.DoubleValue
1 1.00
2 1.00
3 1.00
4 1.00
5 1.00
6 1.00
7 1.00
8 1.00
9 1.00
10 1.00
11 1.00
12 1.00
13 1.00
14 1.00
15 1.00
16 1.00
17 1.00
18 1.00
19 1.00
20 1.00
21 1.00
22 1.00
23 1.00
24 1.00
25 1.00
26 1.00
27 1.00
28 1.00
29 1.00
30 1.00
31 1.00

#	copyright 2023 drugdesign.org
#	Creation time:	2024-01-11T10:58:48Z

@<SCITEGIC>ROOT_PROPERTY
Ligand:MaximumNumberOfAtoms
SciTegic.value.IntegerValue
100

@<SCITEGIC>ROOT_PROPERTY
Ligand:HydrogenAtomsCountTowardsMaximum
SciTegic.value.BooleanValue
FALSE

@<TRIPOS>MOLECULE
2_bond_rotate_all.sd
   31    33     0 0 0
SMALL
USER_CHARGES


@<TRIPOS>ATOM
      1 C1            0.000000    0.000000   -2.977000 C.2      1 SUBUNIT    0.0268
      2 N2           -0.702300    1.216400   -2.977000 N.2      1 SUBUNIT   -0.2639
      3 C3           -2.106800    1.216400   -2.977000 C.2      1 SUBUNIT    0.0393
      4 C4           -2.809000    0.000000   -2.977000 C.2      1 SUBUNIT    0.0557
      5 C5           -2.106800   -1.216400   -2.977000 C.2      1 SUBUNIT   -0.0466
      6 C6           -0.702200   -1.216400   -2.977000 C.2      1 SUBUNIT   -0.0430
      7 H7            1.103400    0.000000   -2.977000 H        1 SUBUNIT    0.0840
      8 H8           -2.658500    2.172000   -2.977000 H        1 SUBUNIT    0.0848
      9 H9           -2.658500   -2.171900   -2.977000 H        1 SUBUNIT    0.0632
     10 H10          -0.150500   -2.172000   -2.977000 H        1 SUBUNIT    0.0639
     11 C11          -4.137600   -0.014300   -2.977000 C.2      1 SUBUNIT    0.2487
     12 N12          -4.814900   -0.021600   -1.780300 N.am     1 SUBUNIT   -0.2816
     13 O13          -4.746400   -0.020800   -4.038400 O.2      1 SUBUNIT   -0.2715
     14 H14          -4.207000   -0.015000   -0.962500 H        1 SUBUNIT    0.1560
     15 C15          -6.128800   -0.035700   -1.777600 C.2      1 SUBUNIT    0.0291
     16 C16          -6.828200   -1.253800   -1.776100 C.2      1 SUBUNIT   -0.0552
     17 C17          -8.238400    1.175700   -1.773200 C.2      1 SUBUNIT   -0.0749
     18 C18          -6.833800    1.179000   -1.776100 C.2      1 SUBUNIT   -0.0444
     19 H19          -6.274100   -2.208100   -1.777200 H        1 SUBUNIT    0.0602
     20 H20          -8.792400    2.129900   -1.772100 H        1 SUBUNIT    0.0583
     21 H21          -6.284400    2.135900   -1.777300 H        1 SUBUNIT    0.0639
     22 C22         -10.291000   -0.015900   -1.768900 C.2      1 SUBUNIT   -0.0756
     23 C23         -10.990500   -1.233900   -1.767400 C.2      1 SUBUNIT   -0.0517
     24 C24         -10.285400   -2.448600   -1.768900 C.2      1 SUBUNIT    0.0138
     25 C25          -8.880800   -2.445300   -1.771800 C.2      1 SUBUNIT   -0.0624
     26 C26          -8.181400   -1.227300   -1.773300 C.3      1 SUBUNIT    0.0480
     27 C27          -8.886500   -0.012500   -1.771800 C.3      1 SUBUNIT    0.0452
     28 H28         -10.845000    0.938400   -1.767800 H        1 SUBUNIT    0.0583
     29 H29         -12.093900   -1.236400   -1.765100 H        1 SUBUNIT    0.0631
     30 Br30        -11.245700   -4.121000   -1.766800 Br       1 SUBUNIT   -0.0512
     31 H31          -8.326900   -3.399500   -1.772900 H        1 SUBUNIT    0.0594
@<TRIPOS>BOND
     1    1    2 2
     2    1    6 1
     3    1    7 1
     4    2    3 1
     5    3    4 2
     6    3    8 1
     7    4    5 1
     8    4   11 1
     9    5    6 2
    10    5    9 1
    11    6   10 1
    12   11   12 1
    13   11   13 2
    14   12   14 1
    15   12   15 1
    16   15   16 2
    17   15   18 1
    18   16   26 1
    19   16   19 1
    20   17   27 1
    21   17   18 2
    22   17   20 1
    23   18   21 1
    24   22   23 2
    25   22   27 1
    26   22   28 1
    27   23   24 1
    28   23   29 1
    29   24   25 2
    30   24   30 1
    31   25   26 1
    32   25   31 1
    33   26   27 1
@<SCITEGIC>ATOM_PROPERTY
Formal Charge
SciTegic.value.StringValue
1 0
2 0
3 0
4 0
5 0
6 0
7 0
8 0
9 0
10 0
11 0
12 0
13 0
14 0
15 0
16 0
17 0
18 0
19 0
20 0
21 0
22 0
23 0
24 0
25 0
26 0
27 0
28 0
29 0
30 0
31 0

@<SCITEGIC>ATOM_PROPERTY
pdb_tempFactor
SciTegic.value.DoubleValue
1 0.00
2 0.00
3 0.00
4 0.00
5 0.00
6 0.00
7 0.00
8 0.00
9 0.00
10 0.00
11 0.00
12 0.00
13 0.00
14 0.00
15 0.00
16 0.00
17 0.00
18 0.00
19 0.00
20 0.00
21 0.00
22 0.00
23 0.00
24 0.00
25 0.00
26 0.00
27 0.00
28 0.00
29 0.00
30 0.00
31 0.00

@<SCITEGIC>ATOM_PROPERTY
pdb_occupancy
SciTegic.value.DoubleValue
1 1.00
2 1.00
3 1.00
4 1.00
5 1.00
6 1.00
7 1.00
8 1.00
9 1.00
10 1.00
11 1.00
12 1.00
13 1.00
14 1.00
15 1.00
16 1.00
17 1.00
18 1.00
19 1.00
20 1.00
21 1.00
22 1.00
23 1.00
24 1.00
25 1.00
26 1.00
27 1.00
28 1.00
29 1.00
30 1.00
31 1.00

#	copyright 2023 drugdesign.org
#	Creation time:	2024-01-11T10:58:48Z

@<SCITEGIC>ROOT_PROPERTY
Ligand:MaximumNumberOfAtoms
SciTegic.value.IntegerValue
100

@<SCITEGIC>ROOT_PROPERTY
Ligand:HydrogenAtomsCountTowardsMaximum
SciTegic.value.BooleanValue
FALSE

@<TRIPOS>MOLECULE
2_bond_rotate_all.sd
   31    33     0 0 0
SMALL
USER_CHARGES


@<TRIPOS>ATOM
      1 C1            0.000000    0.000000   -2.977000 C.2      1 SUBUNIT    0.0268
      2 N2           -0.702300    1.216400   -2.977000 N.2      1 SUBUNIT   -0.2639
      3 C3           -2.106800    1.216400   -2.977000 C.2      1 SUBUNIT    0.0393
      4 C4           -2.809000    0.000000   -2.977000 C.2      1 SUBUNIT    0.0557
      5 C5           -2.106800   -1.216400   -2.977000 C.2      1 SUBUNIT   -0.0466
      6 C6           -0.702200   -1.216400   -2.977000 C.2      1 SUBUNIT   -0.0430
      7 H7            1.103400    0.000000   -2.977000 H        1 SUBUNIT    0.0840
      8 H8           -2.658500    2.172000   -2.977000 H        1 SUBUNIT    0.0848
      9 H9           -2.658500   -2.171900   -2.977000 H        1 SUBUNIT    0.0632
     10 H10          -0.150500   -2.172000   -2.977000 H        1 SUBUNIT    0.0639
     11 C11          -4.137600   -0.014300   -2.977000 C.2      1 SUBUNIT    0.2487
     12 N12          -4.814900   -0.021600   -1.780300 N.am     1 SUBUNIT   -0.2816
     13 O13          -4.746400   -0.020800   -4.038400 O.2      1 SUBUNIT   -0.2715
     14 H14          -4.207000   -0.015000   -0.962500 H        1 SUBUNIT    0.1560
     15 C15          -6.128800   -0.035700   -1.777600 C.2      1 SUBUNIT    0.0291
     16 C16          -6.828700   -1.091600   -1.170800 C.2      1 SUBUNIT   -0.0552
     17 C17          -8.238000    1.010400   -2.390200 C.2      1 SUBUNIT   -0.0749
     18 C18          -6.833400    1.015300   -2.387200 C.2      1 SUBUNIT   -0.0444
     19 H19          -6.275000   -1.917200   -0.691900 H        1 SUBUNIT    0.0602
     20 H20          -8.791500    1.835900   -2.869100 H        1 SUBUNIT    0.0583
     21 H21          -6.283500    1.844800   -2.863900 H        1 SUBUNIT    0.0639
     22 C22         -10.291000   -0.024500   -1.801200 C.2      1 SUBUNIT   -0.0756
     23 C23         -10.990900   -1.080400   -1.194500 C.2      1 SUBUNIT   -0.0517
     24 C24         -10.286300   -2.131300   -0.584800 C.2      1 SUBUNIT    0.0138
     25 C25          -8.881800   -2.126400   -0.581900 C.2      1 SUBUNIT   -0.0624
     26 C26          -8.181800   -1.070600   -1.188500 C.3      1 SUBUNIT    0.0480
     27 C27          -8.886500   -0.019600   -1.798200 C.3      1 SUBUNIT    0.0452
     28 H28         -10.844600    0.801100   -2.280100 H        1 SUBUNIT    0.0583
     29 H29         -12.094400   -1.084200   -1.196900 H        1 SUBUNIT    0.0631
     30 Br30        -11.247300   -3.581100    0.248200 Br       1 SUBUNIT   -0.0512
     31 H31          -8.328200   -2.952000   -0.102900 H        1 SUBUNIT    0.0594
@<TRIPOS>BOND
     1    1    2 2
     2    1    6 1
     3    1    7 1
     4    2    3 1
     5    3    4 2
     6    3    8 1
     7    4    5 1
     8    4   11 1
     9    5    6 2
    10    5    9 1
    11    6   10 1
    12   11   12 1
    13   11   13 2
    14   12   14 1
    15   12   15 1
    16   15   16 2
    17   15   18 1
    18   16   26 1
    19   16   19 1
    20   17   27 1
    21   17   18 2
    22   17   20 1
    23   18   21 1
    24   22   23 2
    25   22   27 1
    26   22   28 1
    27   23   24 1
    28   23   29 1
    29   24   25 2
    30   24   30 1
    31   25   26 1
    32   25   31 1
    33   26   27 1
@<SCITEGIC>ATOM_PROPERTY
Formal Charge
SciTegic.value.StringValue
1 0
2 0
3 0
4 0
5 0
6 0
7 0
8 0
9 0
10 0
11 0
12 0
13 0
14 0
15 0
16 0
17 0
18 0
19 0
20 0
21 0
22 0
23 0
24 0
25 0
26 0
27 0
28 0
29 0
30 0
31 0

@<SCITEGIC>ATOM_PROPERTY
pdb_tempFactor
SciTegic.value.DoubleValue
1 0.00
2 0.00
3 0.00
4 0.00
5 0.00
6 0.00
7 0.00
8 0.00
9 0.00
10 0.00
11 0.00
12 0.00
13 0.00
14 0.00
15 0.00
16 0.00
17 0.00
18 0.00
19 0.00
20 0.00
21 0.00
22 0.00
23 0.00
24 0.00
25 0.00
26 0.00
27 0.00
28 0.00
29 0.00
30 0.00
31 0.00

@<SCITEGIC>ATOM_PROPERTY
pdb_occupancy
SciTegic.value.DoubleValue
1 1.00
2 1.00
3 1.00
4 1.00
5 1.00
6 1.00
7 1.00
8 1.00
9 1.00
10 1.00
11 1.00
12 1.00
13 1.00
14 1.00
15 1.00
16 1.00
17 1.00
18 1.00
19 1.00
20 1.00
21 1.00
22 1.00
23 1.00
24 1.00
25 1.00
26 1.00
27 1.00
28 1.00
29 1.00
30 1.00
31 1.00

#	copyright 2023 drugdesign.org
#	Creation time:	2024-01-11T10:58:48Z

@<SCITEGIC>ROOT_PROPERTY
Ligand:MaximumNumberOfAtoms
SciTegic.value.IntegerValue
100

@<SCITEGIC>ROOT_PROPERTY
Ligand:HydrogenAtomsCountTowardsMaximum
SciTegic.value.BooleanValue
FALSE

@<TRIPOS>MOLECULE
2_bond_rotate_all.sd
   31    33     0 0 0
SMALL
USER_CHARGES


@<TRIPOS>ATOM
      1 C1            0.000000    0.000000   -2.977000 C.2      1 SUBUNIT    0.0268
      2 N2           -0.702300    1.216400   -2.977000 N.2      1 SUBUNIT   -0.2639
      3 C3           -2.106800    1.216400   -2.977000 C.2      1 SUBUNIT    0.0393
      4 C4           -2.809000    0.000000   -2.977000 C.2      1 SUBUNIT    0.0557
      5 C5           -2.106800   -1.216400   -2.977000 C.2      1 SUBUNIT   -0.0466
      6 C6           -0.702200   -1.216400   -2.977000 C.2      1 SUBUNIT   -0.0430
      7 H7            1.103400    0.000000   -2.977000 H        1 SUBUNIT    0.0840
      8 H8           -2.658500    2.172000   -2.977000 H        1 SUBUNIT    0.0848
      9 H9           -2.658500   -2.171900   -2.977000 H        1 SUBUNIT    0.0632
     10 H10          -0.150500   -2.172000   -2.977000 H        1 SUBUNIT    0.0639
     11 C11          -4.137600   -0.014300   -2.977000 C.2      1 SUBUNIT    0.2487
     12 N12          -4.814900   -0.021600   -1.780300 N.am     1 SUBUNIT   -0.2816
     13 O13          -4.746400   -0.020800   -4.038400 O.2      1 SUBUNIT   -0.2715
     14 H14          -4.207000   -0.015000   -0.962500 H        1 SUBUNIT    0.1560
     15 C15          -6.128800   -0.035700   -1.777600 C.2      1 SUBUNIT    0.0291
     16 C16          -6.832500   -0.648500   -0.727800 C.2      1 SUBUNIT   -0.0552
     17 C17          -8.234000    0.558700   -2.841900 C.2      1 SUBUNIT   -0.0749
     18 C18          -6.829500    0.567900   -2.834600 C.2      1 SUBUNIT   -0.0444
     19 H19          -6.281900   -1.122700    0.102600 H        1 SUBUNIT    0.0602
     20 H20          -8.784600    1.032900   -3.672200 H        1 SUBUNIT    0.0583
     21 H21          -6.276600    1.049400   -3.659300 H        1 SUBUNIT    0.0639
     22 C22         -10.290800   -0.048200   -1.824800 C.2      1 SUBUNIT   -0.0756
     23 C23         -10.994600   -0.661000   -0.775100 C.2      1 SUBUNIT   -0.0517
     24 C24         -10.293800   -1.264600    0.282000 C.2      1 SUBUNIT    0.0138
     25 C25          -8.889300   -1.255400    0.289200 C.2      1 SUBUNIT   -0.0624
     26 C26          -8.185500   -0.642600   -0.760500 C.3      1 SUBUNIT    0.0480
     27 C27          -8.886300   -0.038900   -1.817600 C.3      1 SUBUNIT    0.0452
     28 H28         -10.841300    0.426000   -2.655200 H        1 SUBUNIT    0.0583
     29 H29         -12.098000   -0.668200   -0.780900 H        1 SUBUNIT    0.0631
     30 Br30        -11.260100   -2.106000    1.723300 Br       1 SUBUNIT   -0.0512
     31 H31          -8.338800   -1.729600    1.119600 H        1 SUBUNIT    0.0594
@<TRIPOS>BOND
     1    1    2 2
     2    1    6 1
     3    1    7 1
     4    2    3 1
     5    3    4 2
     6    3    8 1
     7    4    5 1
     8    4   11 1
     9    5    6 2
    10    5    9 1
    11    6   10 1
    12   11   12 1
    13   11   13 2
    14   12   14 1
    15   12   15 1
    16   15   16 2
    17   15   18 1
    18   16   26 1
    19   16   19 1
    20   17   27 1
    21   17   18 2
    22   17   20 1
    23   18   21 1
    24   22   23 2
    25   22   27 1
    26   22   28 1
    27   23   24 1
    28   23   29 1
    29   24   25 2
    30   24   30 1
    31   25   26 1
    32   25   31 1
    33   26   27 1
@<SCITEGIC>ATOM_PROPERTY
Formal Charge
SciTegic.value.StringValue
1 0
2 0
3 0
4 0
5 0
6 0
7 0
8 0
9 0
10 0
11 0
12 0
13 0
14 0
15 0
16 0
17 0
18 0
19 0
20 0
21 0
22 0
23 0
24 0
25 0
26 0
27 0
28 0
29 0
30 0
31 0

@<SCITEGIC>ATOM_PROPERTY
pdb_tempFactor
SciTegic.value.DoubleValue
1 0.00
2 0.00
3 0.00
4 0.00
5 0.00
6 0.00
7 0.00
8 0.00
9 0.00
10 0.00
11 0.00
12 0.00
13 0.00
14 0.00
15 0.00
16 0.00
17 0.00
18 0.00
19 0.00
20 0.00
21 0.00
22 0.00
23 0.00
24 0.00
25 0.00
26 0.00
27 0.00
28 0.00
29 0.00
30 0.00
31 0.00

@<SCITEGIC>ATOM_PROPERTY
pdb_occupancy
SciTegic.value.DoubleValue
1 1.00
2 1.00
3 1.00
4 1.00
5 1.00
6 1.00
7 1.00
8 1.00
9 1.00
10 1.00
11 1.00
12 1.00
13 1.00
14 1.00
15 1.00
16 1.00
17 1.00
18 1.00
19 1.00
20 1.00
21 1.00
22 1.00
23 1.00
24 1.00
25 1.00
26 1.00
27 1.00
28 1.00
29 1.00
30 1.00
31 1.00

#	copyright 2023 drugdesign.org
#	Creation time:	2024-01-11T10:58:48Z

@<SCITEGIC>ROOT_PROPERTY
Ligand:MaximumNumberOfAtoms
SciTegic.value.IntegerValue
100

@<SCITEGIC>ROOT_PROPERTY
Ligand:HydrogenAtomsCountTowardsMaximum
SciTegic.value.BooleanValue
FALSE

@<TRIPOS>MOLECULE
2_bond_rotate_all.sd
   31    33     0 0 0
SMALL
USER_CHARGES


@<TRIPOS>ATOM
      1 C1            0.000000    0.000000   -2.977000 C.2      1 SUBUNIT    0.0268
      2 N2           -0.702300    1.216400   -2.977000 N.2      1 SUBUNIT   -0.2639
      3 C3           -2.106800    1.216400   -2.977000 C.2      1 SUBUNIT    0.0393
      4 C4           -2.809000    0.000000   -2.977000 C.2      1 SUBUNIT    0.0557
      5 C5           -2.106800   -1.216400   -2.977000 C.2      1 SUBUNIT   -0.0466
      6 C6           -0.702200   -1.216400   -2.977000 C.2      1 SUBUNIT   -0.0430
      7 H7            1.103400    0.000000   -2.977000 H        1 SUBUNIT    0.0840
      8 H8           -2.658500    2.172000   -2.977000 H        1 SUBUNIT    0.0848
      9 H9           -2.658500   -2.171900   -2.977000 H        1 SUBUNIT    0.0632
     10 H10          -0.150500   -2.172000   -2.977000 H        1 SUBUNIT    0.0639
     11 C11          -4.137600   -0.014300   -2.977000 C.2      1 SUBUNIT    0.2487
     12 N12          -4.814900   -0.021600   -1.780300 N.am     1 SUBUNIT   -0.2816
     13 O13          -4.746400   -0.020800   -4.038400 O.2      1 SUBUNIT   -0.2715
     14 H14          -4.207000   -0.015000   -0.962500 H        1 SUBUNIT    0.1560
     15 C15          -6.128800   -0.035700   -1.777600 C.2      1 SUBUNIT    0.0291
     16 C16          -6.838700   -0.043300   -0.565600 C.2      1 SUBUNIT   -0.0552
     17 C17          -8.227700   -0.058300   -3.007200 C.2      1 SUBUNIT   -0.0749
     18 C18          -6.823200   -0.043200   -2.998400 C.2      1 SUBUNIT   -0.0444
     19 H19          -6.293000   -0.037500    0.393500 H        1 SUBUNIT    0.0602
     20 H20          -8.773400   -0.064100   -3.966200 H        1 SUBUNIT    0.0583
     21 H21          -6.265600   -0.037200   -3.950500 H        1 SUBUNIT    0.0639
     22 C22         -10.290500   -0.080400   -1.833500 C.2      1 SUBUNIT   -0.0756
     23 C23         -11.000400   -0.088100   -0.621500 C.2      1 SUBUNIT   -0.0517
     24 C24         -10.305900   -0.080600    0.599200 C.2      1 SUBUNIT    0.0138
     25 C25          -8.901500   -0.065500    0.608000 C.2      1 SUBUNIT   -0.0624
     26 C26          -8.191500   -0.057900   -0.603800 C.3      1 SUBUNIT    0.0480
     27 C27          -8.886000   -0.065300   -1.824700 C.3      1 SUBUNIT    0.0452
     28 H28         -10.836100   -0.086300   -2.792500 H        1 SUBUNIT    0.0583
     29 H29         -12.103800   -0.099900   -0.628600 H        1 SUBUNIT    0.0631
     30 Br30        -11.280700   -0.091100    2.263200 Br       1 SUBUNIT   -0.0512
     31 H31          -8.355900   -0.059600    1.567100 H        1 SUBUNIT    0.0594
@<TRIPOS>BOND
     1    1    2 2
     2    1    6 1
     3    1    7 1
     4    2    3 1
     5    3    4 2
     6    3    8 1
     7    4    5 1
     8    4   11 1
     9    5    6 2
    10    5    9 1
    11    6   10 1
    12   11   12 1
    13   11   13 2
    14   12   14 1
    15   12   15 1
    16   15   16 2
    17   15   18 1
    18   16   26 1
    19   16   19 1
    20   17   27 1
    21   17   18 2
    22   17   20 1
    23   18   21 1
    24   22   23 2
    25   22   27 1
    26   22   28 1
    27   23   24 1
    28   23   29 1
    29   24   25 2
    30   24   30 1
    31   25   26 1
    32   25   31 1
    33   26   27 1
@<SCITEGIC>ATOM_PROPERTY
Formal Charge
SciTegic.value.StringValue
1 0
2 0
3 0
4 0
5 0
6 0
7 0
8 0
9 0
10 0
11 0
12 0
13 0
14 0
15 0
16 0
17 0
18 0
19 0
20 0
21 0
22 0
23 0
24 0
25 0
26 0
27 0
28 0
29 0
30 0
31 0

@<SCITEGIC>ATOM_PROPERTY
pdb_tempFactor
SciTegic.value.DoubleValue
1 0.00
2 0.00
3 0.00
4 0.00
5 0.00
6 0.00
7 0.00
8 0.00
9 0.00
10 0.00
11 0.00
12 0.00
13 0.00
14 0.00
15 0.00
16 0.00
17 0.00
18 0.00
19 0.00
20 0.00
21 0.00
22 0.00
23 0.00
24 0.00
25 0.00
26 0.00
27 0.00
28 0.00
29 0.00
30 0.00
31 0.00

@<SCITEGIC>ATOM_PROPERTY
pdb_occupancy
SciTegic.value.DoubleValue
1 1.00
2 1.00
3 1.00
4 1.00
5 1.00
6 1.00
7 1.00
8 1.00
9 1.00
10 1.00
11 1.00
12 1.00
13 1.00
14 1.00
15 1.00
16 1.00
17 1.00
18 1.00
19 1.00
20 1.00
21 1.00
22 1.00
23 1.00
24 1.00
25 1.00
26 1.00
27 1.00
28 1.00
29 1.00
30 1.00
31 1.00

#	copyright 2023 drugdesign.org
#	Creation time:	2024-01-11T10:58:48Z

@<SCITEGIC>ROOT_PROPERTY
Ligand:MaximumNumberOfAtoms
SciTegic.value.IntegerValue
100

@<SCITEGIC>ROOT_PROPERTY
Ligand:HydrogenAtomsCountTowardsMaximum
SciTegic.value.BooleanValue
FALSE

@<TRIPOS>MOLECULE
2_bond_rotate_all.sd
   31    33     0 0 0
SMALL
USER_CHARGES


@<TRIPOS>ATOM
      1 C1            0.000000    0.000000   -2.977000 C.2      1 SUBUNIT    0.0268
      2 N2           -0.702300    1.216400   -2.977000 N.2      1 SUBUNIT   -0.2639
      3 C3           -2.106800    1.216400   -2.977000 C.2      1 SUBUNIT    0.0393
      4 C4           -2.809000    0.000000   -2.977000 C.2      1 SUBUNIT    0.0557
      5 C5           -2.106800   -1.216400   -2.977000 C.2      1 SUBUNIT   -0.0466
      6 C6           -0.702200   -1.216400   -2.977000 C.2      1 SUBUNIT   -0.0430
      7 H7            1.103400    0.000000   -2.977000 H        1 SUBUNIT    0.0840
      8 H8           -2.658500    2.172000   -2.977000 H        1 SUBUNIT    0.0848
      9 H9           -2.658500   -2.171900   -2.977000 H        1 SUBUNIT    0.0632
     10 H10          -0.150500   -2.172000   -2.977000 H        1 SUBUNIT    0.0639
     11 C11          -4.137600   -0.014300   -2.977000 C.2      1 SUBUNIT    0.2487
     12 N12          -4.814900   -0.021600   -1.780300 N.am     1 SUBUNIT   -0.2816
     13 O13          -4.746400   -0.020800   -4.038400 O.2      1 SUBUNIT   -0.2715
     14 H14          -4.207000   -0.015000   -0.962500 H        1 SUBUNIT    0.1560
     15 C15          -6.128800   -0.035700   -1.777600 C.2      1 SUBUNIT    0.0291
     16 C16          -6.845500    0.561900   -0.727800 C.2      1 SUBUNIT   -0.0552
     17 C17          -8.220800   -0.675200   -2.841900 C.2      1 SUBUNIT   -0.0749
     18 C18          -6.816300   -0.654300   -2.834600 C.2      1 SUBUNIT   -0.0444
     19 H19          -6.305200    1.047800    0.102600 H        1 SUBUNIT    0.0602
     20 H20          -8.761000   -1.161100   -3.672200 H        1 SUBUNIT    0.0583
     21 H21          -6.253300   -1.123700   -3.659300 H        1 SUBUNIT    0.0639
     22 C22         -10.290100   -0.112700   -1.824800 C.2      1 SUBUNIT   -0.0756
     23 C23         -11.006900    0.484800   -0.775100 C.2      1 SUBUNIT   -0.0517
     24 C24         -10.319300    1.103400    0.282000 C.2      1 SUBUNIT    0.0138
     25 C25          -8.914900    1.124300    0.289200 C.2      1 SUBUNIT   -0.0624
     26 C26          -8.198100    0.526800   -0.760500 C.3      1 SUBUNIT    0.0480
     27 C27          -8.885700   -0.091800   -1.817600 C.3      1 SUBUNIT    0.0452
     28 H28         -10.830300   -0.598700   -2.655200 H        1 SUBUNIT    0.0583
     29 H29         -12.110200    0.468300   -0.780900 H        1 SUBUNIT    0.0631
     30 Br30        -11.303400    1.923800    1.723300 Br       1 SUBUNIT   -0.0512
     31 H31          -8.374700    1.610200    1.119600 H        1 SUBUNIT    0.0594
@<TRIPOS>BOND
     1    1    2 2
     2    1    6 1
     3    1    7 1
     4    2    3 1
     5    3    4 2
     6    3    8 1
     7    4    5 1
     8    4   11 1
     9    5    6 2
    10    5    9 1
    11    6   10 1
    12   11   12 1
    13   11   13 2
    14   12   14 1
    15   12   15 1
    16   15   16 2
    17   15   18 1
    18   16   26 1
    19   16   19 1
    20   17   27 1
    21   17   18 2
    22   17   20 1
    23   18   21 1
    24   22   23 2
    25   22   27 1
    26   22   28 1
    27   23   24 1
    28   23   29 1
    29   24   25 2
    30   24   30 1
    31   25   26 1
    32   25   31 1
    33   26   27 1
@<SCITEGIC>ATOM_PROPERTY
Formal Charge
SciTegic.value.StringValue
1 0
2 0
3 0
4 0
5 0
6 0
7 0
8 0
9 0
10 0
11 0
12 0
13 0
14 0
15 0
16 0
17 0
18 0
19 0
20 0
21 0
22 0
23 0
24 0
25 0
26 0
27 0
28 0
29 0
30 0
31 0

@<SCITEGIC>ATOM_PROPERTY
pdb_tempFactor
SciTegic.value.DoubleValue
1 0.00
2 0.00
3 0.00
4 0.00
5 0.00
6 0.00
7 0.00
8 0.00
9 0.00
10 0.00
11 0.00
12 0.00
13 0.00
14 0.00
15 0.00
16 0.00
17 0.00
18 0.00
19 0.00
20 0.00
21 0.00
22 0.00
23 0.00
24 0.00
25 0.00
26 0.00
27 0.00
28 0.00
29 0.00
30 0.00
31 0.00

@<SCITEGIC>ATOM_PROPERTY
pdb_occupancy
SciTegic.value.DoubleValue
1 1.00
2 1.00
3 1.00
4 1.00
5 1.00
6 1.00
7 1.00
8 1.00
9 1.00
10 1.00
11 1.00
12 1.00
13 1.00
14 1.00
15 1.00
16 1.00
17 1.00
18 1.00
19 1.00
20 1.00
21 1.00
22 1.00
23 1.00
24 1.00
25 1.00
26 1.00
27 1.00
28 1.00
29 1.00
30 1.00
31 1.00

#	copyright 2023 drugdesign.org
#	Creation time:	2024-01-11T10:58:48Z

@<SCITEGIC>ROOT_PROPERTY
Ligand:MaximumNumberOfAtoms
SciTegic.value.IntegerValue
100

@<SCITEGIC>ROOT_PROPERTY
Ligand:HydrogenAtomsCountTowardsMaximum
SciTegic.value.BooleanValue
FALSE

@<TRIPOS>MOLECULE
2_bond_rotate_all.sd
   31    33     0 0 0
SMALL
USER_CHARGES


@<TRIPOS>ATOM
      1 C1            0.000000    0.000000   -2.977000 C.2      1 SUBUNIT    0.0268
      2 N2           -0.702300    1.216400   -2.977000 N.2      1 SUBUNIT   -0.2639
      3 C3           -2.106800    1.216400   -2.977000 C.2      1 SUBUNIT    0.0393
      4 C4           -2.809000    0.000000   -2.977000 C.2      1 SUBUNIT    0.0557
      5 C5           -2.106800   -1.216400   -2.977000 C.2      1 SUBUNIT   -0.0466
      6 C6           -0.702200   -1.216400   -2.977000 C.2      1 SUBUNIT   -0.0430
      7 H7            1.103400    0.000000   -2.977000 H        1 SUBUNIT    0.0840
      8 H8           -2.658500    2.172000   -2.977000 H        1 SUBUNIT    0.0848
      9 H9           -2.658500   -2.171900   -2.977000 H        1 SUBUNIT    0.0632
     10 H10          -0.150500   -2.172000   -2.977000 H        1 SUBUNIT    0.0639
     11 C11          -4.137600   -0.014300   -2.977000 C.2      1 SUBUNIT    0.2487
     12 N12          -4.814900   -0.021600   -1.780300 N.am     1 SUBUNIT   -0.2816
     13 O13          -4.746400   -0.020800   -4.038400 O.2      1 SUBUNIT   -0.2715
     14 H14          -4.207000   -0.015000   -0.962500 H        1 SUBUNIT    0.1560
     15 C15          -6.128800   -0.035700   -1.777600 C.2      1 SUBUNIT    0.0291
     16 C16          -6.851200    1.004900   -1.170800 C.2      1 SUBUNIT   -0.0552
     17 C17          -8.215000   -1.126900   -2.390200 C.2      1 SUBUNIT   -0.0749
     18 C18          -6.810600   -1.101600   -2.387200 C.2      1 SUBUNIT   -0.0444
     19 H19          -6.315400    1.842200   -0.691900 H        1 SUBUNIT    0.0602
     20 H20          -8.750700   -1.964200   -2.869100 H        1 SUBUNIT    0.0583
     21 H21          -6.243100   -1.919100   -2.863900 H        1 SUBUNIT    0.0639
     22 C22         -10.289800   -0.136400   -1.801200 C.2      1 SUBUNIT   -0.0756
     23 C23         -11.012300    0.904200   -1.194500 C.2      1 SUBUNIT   -0.0517
     24 C24         -10.330400    1.970100   -0.584800 C.2      1 SUBUNIT    0.0138
     25 C25          -8.926100    1.995300   -0.581900 C.2      1 SUBUNIT   -0.0624
     26 C26          -8.203600    0.954800   -1.188500 C.3      1 SUBUNIT    0.0480
     27 C27          -8.885500   -0.111100   -1.798200 C.3      1 SUBUNIT    0.0452
     28 H28         -10.825500   -0.973700   -2.280200 H        1 SUBUNIT    0.0583
     29 H29         -12.115600    0.884300   -1.196900 H        1 SUBUNIT    0.0631
     30 Br30        -11.322400    3.398800    0.248200 Br       1 SUBUNIT   -0.0512
     31 H31          -8.390400    2.832700   -0.102900 H        1 SUBUNIT    0.0594
@<TRIPOS>BOND
     1    1    2 2
     2    1    6 1
     3    1    7 1
     4    2    3 1
     5    3    4 2
     6    3    8 1
     7    4    5 1
     8    4   11 1
     9    5    6 2
    10    5    9 1
    11    6   10 1
    12   11   12 1
    13   11   13 2
    14   12   14 1
    15   12   15 1
    16   15   16 2
    17   15   18 1
    18   16   26 1
    19   16   19 1
    20   17   27 1
    21   17   18 2
    22   17   20 1
    23   18   21 1
    24   22   23 2
    25   22   27 1
    26   22   28 1
    27   23   24 1
    28   23   29 1
    29   24   25 2
    30   24   30 1
    31   25   26 1
    32   25   31 1
    33   26   27 1
@<SCITEGIC>ATOM_PROPERTY
Formal Charge
SciTegic.value.StringValue
1 0
2 0
3 0
4 0
5 0
6 0
7 0
8 0
9 0
10 0
11 0
12 0
13 0
14 0
15 0
16 0
17 0
18 0
19 0
20 0
21 0
22 0
23 0
24 0
25 0
26 0
27 0
28 0
29 0
30 0
31 0

@<SCITEGIC>ATOM_PROPERTY
pdb_tempFactor
SciTegic.value.DoubleValue
1 0.00
2 0.00
3 0.00
4 0.00
5 0.00
6 0.00
7 0.00
8 0.00
9 0.00
10 0.00
11 0.00
12 0.00
13 0.00
14 0.00
15 0.00
16 0.00
17 0.00
18 0.00
19 0.00
20 0.00
21 0.00
22 0.00
23 0.00
24 0.00
25 0.00
26 0.00
27 0.00
28 0.00
29 0.00
30 0.00
31 0.00

@<SCITEGIC>ATOM_PROPERTY
pdb_occupancy
SciTegic.value.DoubleValue
1 1.00
2 1.00
3 1.00
4 1.00
5 1.00
6 1.00
7 1.00
8 1.00
9 1.00
10 1.00
11 1.00
12 1.00
13 1.00
14 1.00
15 1.00
16 1.00
17 1.00
18 1.00
19 1.00
20 1.00
21 1.00
22 1.00
23 1.00
24 1.00
25 1.00
26 1.00
27 1.00
28 1.00
29 1.00
30 1.00
31 1.00

#	copyright 2023 drugdesign.org
#	Creation time:	2024-01-11T10:58:48Z

@<SCITEGIC>ROOT_PROPERTY
Ligand:MaximumNumberOfAtoms
SciTegic.value.IntegerValue
100

@<SCITEGIC>ROOT_PROPERTY
Ligand:HydrogenAtomsCountTowardsMaximum
SciTegic.value.BooleanValue
FALSE

@<TRIPOS>MOLECULE
2_bond_rotate_all.sd
   31    33     0 0 0
SMALL
USER_CHARGES


@<TRIPOS>ATOM
      1 C1            0.000000    0.000000   -2.977000 C.2      1 SUBUNIT    0.0268
      2 N2           -0.702300    1.216400   -2.977000 N.2      1 SUBUNIT   -0.2639
      3 C3           -2.106800    1.216400   -2.977000 C.2      1 SUBUNIT    0.0393
      4 C4           -2.809000    0.000000   -2.977000 C.2      1 SUBUNIT    0.0557
      5 C5           -2.106800   -1.216400   -2.977000 C.2      1 SUBUNIT   -0.0466
      6 C6           -0.702200   -1.216400   -2.977000 C.2      1 SUBUNIT   -0.0430
      7 H7            1.103400    0.000000   -2.977000 H        1 SUBUNIT    0.0840
      8 H8           -2.658500    2.172000   -2.977000 H        1 SUBUNIT    0.0848
      9 H9           -2.658500   -2.171900   -2.977000 H        1 SUBUNIT    0.0632
     10 H10          -0.150500   -2.172000   -2.977000 H        1 SUBUNIT    0.0639
     11 C11          -4.137600   -0.014300   -2.977000 C.2      1 SUBUNIT    0.2487
     12 N12          -4.814900   -0.021600   -1.780300 N.am     1 SUBUNIT   -0.2816
     13 O13          -4.746400   -0.020800   -4.038400 O.2      1 SUBUNIT   -0.2715
     14 H14          -4.207000   -0.015000   -0.962500 H        1 SUBUNIT    0.1560
     15 C15          -6.128800   -0.035700   -1.777600 C.2      1 SUBUNIT    0.0291
     16 C16          -6.854200    1.167000   -1.776100 C.2      1 SUBUNIT   -0.0552
     17 C17          -8.211900   -1.292200   -1.773200 C.2      1 SUBUNIT   -0.0749
     18 C18          -6.807600   -1.265300   -1.776100 C.2      1 SUBUNIT   -0.0444
     19 H19          -6.320800    2.133000   -1.777200 H        1 SUBUNIT    0.0602
     20 H20          -8.745200   -2.258100   -1.772100 H        1 SUBUNIT    0.0583
     21 H21          -6.237700   -2.210200   -1.777300 H        1 SUBUNIT    0.0639
     22 C22         -10.289600   -0.145000   -1.768900 C.2      1 SUBUNIT   -0.0756
     23 C23         -11.015100    1.057700   -1.767400 C.2      1 SUBUNIT   -0.0517
     24 C24         -10.336300    2.287300   -1.768900 C.2      1 SUBUNIT    0.0138
     25 C25          -8.932000    2.314100   -1.771800 C.2      1 SUBUNIT   -0.0624
     26 C26          -8.206500    1.111500   -1.773300 C.3      1 SUBUNIT    0.0480
     27 C27          -8.885400   -0.118200   -1.771800 C.3      1 SUBUNIT    0.0452
     28 H28         -10.822900   -1.111000   -1.767800 H        1 SUBUNIT    0.0583
     29 H29         -12.118400    1.036500   -1.765100 H        1 SUBUNIT    0.0631
     30 Br30        -11.332400    3.938600   -1.766800 Br       1 SUBUNIT   -0.0512
     31 H31          -8.398700    3.280100   -1.772900 H        1 SUBUNIT    0.0594
@<TRIPOS>BOND
     1    1    2 2
     2    1    6 1
     3    1    7 1
     4    2    3 1
     5    3    4 2
     6    3    8 1
     7    4    5 1
     8    4   11 1
     9    5    6 2
    10    5    9 1
    11    6   10 1
    12   11   12 1
    13   11   13 2
    14   12   14 1
    15   12   15 1
    16   15   16 2
    17   15   18 1
    18   16   26 1
    19   16   19 1
    20   17   27 1
    21   17   18 2
    22   17   20 1
    23   18   21 1
    24   22   23 2
    25   22   27 1
    26   22   28 1
    27   23   24 1
    28   23   29 1
    29   24   25 2
    30   24   30 1
    31   25   26 1
    32   25   31 1
    33   26   27 1
@<SCITEGIC>ATOM_PROPERTY
Formal Charge
SciTegic.value.StringValue
1 0
2 0
3 0
4 0
5 0
6 0
7 0
8 0
9 0
10 0
11 0
12 0
13 0
14 0
15 0
16 0
17 0
18 0
19 0
20 0
21 0
22 0
23 0
24 0
25 0
26 0
27 0
28 0
29 0
30 0
31 0

@<SCITEGIC>ATOM_PROPERTY
pdb_tempFactor
SciTegic.value.DoubleValue
1 0.00
2 0.00
3 0.00
4 0.00
5 0.00
6 0.00
7 0.00
8 0.00
9 0.00
10 0.00
11 0.00
12 0.00
13 0.00
14 0.00
15 0.00
16 0.00
17 0.00
18 0.00
19 0.00
20 0.00
21 0.00
22 0.00
23 0.00
24 0.00
25 0.00
26 0.00
27 0.00
28 0.00
29 0.00
30 0.00
31 0.00

@<SCITEGIC>ATOM_PROPERTY
pdb_occupancy
SciTegic.value.DoubleValue
1 1.00
2 1.00
3 1.00
4 1.00
5 1.00
6 1.00
7 1.00
8 1.00
9 1.00
10 1.00
11 1.00
12 1.00
13 1.00
14 1.00
15 1.00
16 1.00
17 1.00
18 1.00
19 1.00
20 1.00
21 1.00
22 1.00
23 1.00
24 1.00
25 1.00
26 1.00
27 1.00
28 1.00
29 1.00
30 1.00
31 1.00

#	copyright 2023 drugdesign.org
#	Creation time:	2024-01-11T10:58:48Z

@<SCITEGIC>ROOT_PROPERTY
Ligand:MaximumNumberOfAtoms
SciTegic.value.IntegerValue
100

@<SCITEGIC>ROOT_PROPERTY
Ligand:HydrogenAtomsCountTowardsMaximum
SciTegic.value.BooleanValue
FALSE

@<TRIPOS>MOLECULE
2_bond_rotate_all.sd
   31    33     0 0 0
SMALL
USER_CHARGES


@<TRIPOS>ATOM
      1 C1            0.000000    0.000000   -2.977000 C.2      1 SUBUNIT    0.0268
      2 N2           -0.702300    1.216400   -2.977000 N.2      1 SUBUNIT   -0.2639
      3 C3           -2.106800    1.216400   -2.977000 C.2      1 SUBUNIT    0.0393
      4 C4           -2.809000    0.000000   -2.977000 C.2      1 SUBUNIT    0.0557
      5 C5           -2.106800   -1.216400   -2.977000 C.2      1 SUBUNIT   -0.0466
      6 C6           -0.702200   -1.216400   -2.977000 C.2      1 SUBUNIT   -0.0430
      7 H7            1.103400    0.000000   -2.977000 H        1 SUBUNIT    0.0840
      8 H8           -2.658500    2.172000   -2.977000 H        1 SUBUNIT    0.0848
      9 H9           -2.658500   -2.171900   -2.977000 H        1 SUBUNIT    0.0632
     10 H10          -0.150500   -2.172000   -2.977000 H        1 SUBUNIT    0.0639
     11 C11          -4.137600   -0.014300   -2.977000 C.2      1 SUBUNIT    0.2487
     12 N12          -4.814900   -0.021600   -1.780300 N.am     1 SUBUNIT   -0.2816
     13 O13          -4.746400   -0.020800   -4.038400 O.2      1 SUBUNIT   -0.2715
     14 H14          -4.207000   -0.015000   -0.962500 H        1 SUBUNIT    0.1560
     15 C15          -6.128800   -0.035700   -1.777600 C.2      1 SUBUNIT    0.0291
     16 C16          -6.853700    1.004900   -2.381300 C.2      1 SUBUNIT   -0.0552
     17 C17          -8.212400   -1.126900   -1.156200 C.2      1 SUBUNIT   -0.0749
     18 C18          -6.808100   -1.101600   -1.165000 C.2      1 SUBUNIT   -0.0444
     19 H19          -6.319900    1.842200   -2.862500 H        1 SUBUNIT    0.0602
     20 H20          -8.746100   -1.964100   -0.675000 H        1 SUBUNIT    0.0583
     21 H21          -6.238600   -1.919000   -0.690700 H        1 SUBUNIT    0.0639
     22 C22         -10.289700   -0.136400   -1.736600 C.2      1 SUBUNIT   -0.0756
     23 C23         -11.014600    0.904200   -2.340400 C.2      1 SUBUNIT   -0.0517
     24 C24         -10.335300    1.970000   -2.952900 C.2      1 SUBUNIT    0.0138
     25 C25          -8.931100    1.995300   -2.961700 C.2      1 SUBUNIT   -0.0624
     26 C26          -8.206000    0.954800   -2.358000 C.3      1 SUBUNIT    0.0480
     27 C27          -8.885400   -0.111100   -1.745400 C.3      1 SUBUNIT    0.0452
     28 H28         -10.823300   -0.973700   -1.255400 H        1 SUBUNIT    0.0583
     29 H29         -12.117900    0.884200   -2.333400 H        1 SUBUNIT    0.0631
     30 Br30        -11.330700    3.398700   -3.781900 Br       1 SUBUNIT   -0.0512
     31 H31          -8.397400    2.832600   -3.442900 H        1 SUBUNIT    0.0594
@<TRIPOS>BOND
     1    1    2 2
     2    1    6 1
     3    1    7 1
     4    2    3 1
     5    3    4 2
     6    3    8 1
     7    4    5 1
     8    4   11 1
     9    5    6 2
    10    5    9 1
    11    6   10 1
    12   11   12 1
    13   11   13 2
    14   12   14 1
    15   12   15 1
    16   15   16 2
    17   15   18 1
    18   16   26 1
    19   16   19 1
    20   17   27 1
    21   17   18 2
    22   17   20 1
    23   18   21 1
    24   22   23 2
    25   22   27 1
    26   22   28 1
    27   23   24 1
    28   23   29 1
    29   24   25 2
    30   24   30 1
    31   25   26 1
    32   25   31 1
    33   26   27 1
@<SCITEGIC>ATOM_PROPERTY
Formal Charge
SciTegic.value.StringValue
1 0
2 0
3 0
4 0
5 0
6 0
7 0
8 0
9 0
10 0
11 0
12 0
13 0
14 0
15 0
16 0
17 0
18 0
19 0
20 0
21 0
22 0
23 0
24 0
25 0
26 0
27 0
28 0
29 0
30 0
31 0

@<SCITEGIC>ATOM_PROPERTY
pdb_tempFactor
SciTegic.value.DoubleValue
1 0.00
2 0.00
3 0.00
4 0.00
5 0.00
6 0.00
7 0.00
8 0.00
9 0.00
10 0.00
11 0.00
12 0.00
13 0.00
14 0.00
15 0.00
16 0.00
17 0.00
18 0.00
19 0.00
20 0.00
21 0.00
22 0.00
23 0.00
24 0.00
25 0.00
26 0.00
27 0.00
28 0.00
29 0.00
30 0.00
31 0.00

@<SCITEGIC>ATOM_PROPERTY
pdb_occupancy
SciTegic.value.DoubleValue
1 1.00
2 1.00
3 1.00
4 1.00
5 1.00
6 1.00
7 1.00
8 1.00
9 1.00
10 1.00
11 1.00
12 1.00
13 1.00
14 1.00
15 1.00
16 1.00
17 1.00
18 1.00
19 1.00
20 1.00
21 1.00
22 1.00
23 1.00
24 1.00
25 1.00
26 1.00
27 1.00
28 1.00
29 1.00
30 1.00
31 1.00

#	copyright 2023 drugdesign.org
#	Creation time:	2024-01-11T10:58:48Z

@<SCITEGIC>ROOT_PROPERTY
Ligand:MaximumNumberOfAtoms
SciTegic.value.IntegerValue
100

@<SCITEGIC>ROOT_PROPERTY
Ligand:HydrogenAtomsCountTowardsMaximum
SciTegic.value.BooleanValue
FALSE

@<TRIPOS>MOLECULE
2_bond_rotate_all.sd
   31    33     0 0 0
SMALL
USER_CHARGES


@<TRIPOS>ATOM
      1 C1            0.000000    0.000000   -2.977000 C.2      1 SUBUNIT    0.0268
      2 N2           -0.702300    1.216400   -2.977000 N.2      1 SUBUNIT   -0.2639
      3 C3           -2.106800    1.216400   -2.977000 C.2      1 SUBUNIT    0.0393
      4 C4           -2.809000    0.000000   -2.977000 C.2      1 SUBUNIT    0.0557
      5 C5           -2.106800   -1.216400   -2.977000 C.2      1 SUBUNIT   -0.0466
      6 C6           -0.702200   -1.216400   -2.977000 C.2      1 SUBUNIT   -0.0430
      7 H7            1.103400    0.000000   -2.977000 H        1 SUBUNIT    0.0840
      8 H8           -2.658500    2.172000   -2.977000 H        1 SUBUNIT    0.0848
      9 H9           -2.658500   -2.171900   -2.977000 H        1 SUBUNIT    0.0632
     10 H10          -0.150500   -2.172000   -2.977000 H        1 SUBUNIT    0.0639
     11 C11          -4.137600   -0.014300   -2.977000 C.2      1 SUBUNIT    0.2487
     12 N12          -4.814900   -0.021600   -1.780300 N.am     1 SUBUNIT   -0.2816
     13 O13          -4.746400   -0.020800   -4.038400 O.2      1 SUBUNIT   -0.2715
     14 H14          -4.207000   -0.015000   -0.962500 H        1 SUBUNIT    0.1560
     15 C15          -6.128800   -0.035700   -1.777600 C.2      1 SUBUNIT    0.0291
     16 C16          -6.849900    0.561800   -2.824400 C.2      1 SUBUNIT   -0.0552
     17 C17          -8.216300   -0.675200   -0.704500 C.2      1 SUBUNIT   -0.0749
     18 C18          -6.811900   -0.654200   -0.717600 C.2      1 SUBUNIT   -0.0444
     19 H19          -6.313100    1.047700   -3.657100 H        1 SUBUNIT    0.0602
     20 H20          -8.753100   -1.161000    0.128100 H        1 SUBUNIT    0.0583
     21 H21          -6.245500   -1.123600    0.104700 H        1 SUBUNIT    0.0639
     22 C22         -10.289900   -0.112700   -1.713000 C.2      1 SUBUNIT   -0.0756
     23 C23         -11.011000    0.484800   -2.759800 C.2      1 SUBUNIT   -0.0517
     24 C24         -10.327800    1.103300   -3.819700 C.2      1 SUBUNIT    0.0138
     25 C25          -8.923500    1.124200   -3.832800 C.2      1 SUBUNIT   -0.0624
     26 C26          -8.202300    0.526800   -2.786000 C.3      1 SUBUNIT    0.0480
     27 C27          -8.885600   -0.091800   -1.726100 C.3      1 SUBUNIT    0.0452
     28 H28         -10.826600   -0.598600   -0.880300 H        1 SUBUNIT    0.0583
     29 H29         -12.114300    0.468200   -2.749400 H        1 SUBUNIT    0.0631
     30 Br30        -11.318000    1.923600   -5.256900 Br       1 SUBUNIT   -0.0512
     31 H31          -8.386800    1.610100   -4.665400 H        1 SUBUNIT    0.0594
@<TRIPOS>BOND
     1    1    2 2
     2    1    6 1
     3    1    7 1
     4    2    3 1
     5    3    4 2
     6    3    8 1
     7    4    5 1
     8    4   11 1
     9    5    6 2
    10    5    9 1
    11    6   10 1
    12   11   12 1
    13   11   13 2
    14   12   14 1
    15   12   15 1
    16   15   16 2
    17   15   18 1
    18   16   26 1
    19   16   19 1
    20   17   27 1
    21   17   18 2
    22   17   20 1
    23   18   21 1
    24   22   23 2
    25   22   27 1
    26   22   28 1
    27   23   24 1
    28   23   29 1
    29   24   25 2
    30   24   30 1
    31   25   26 1
    32   25   31 1
    33   26   27 1
@<SCITEGIC>ATOM_PROPERTY
Formal Charge
SciTegic.value.StringValue
1 0
2 0
3 0
4 0
5 0
6 0
7 0
8 0
9 0
10 0
11 0
12 0
13 0
14 0
15 0
16 0
17 0
18 0
19 0
20 0
21 0
22 0
23 0
24 0
25 0
26 0
27 0
28 0
29 0
30 0
31 0

@<SCITEGIC>ATOM_PROPERTY
pdb_tempFactor
SciTegic.value.DoubleValue
1 0.00
2 0.00
3 0.00
4 0.00
5 0.00
6 0.00
7 0.00
8 0.00
9 0.00
10 0.00
11 0.00
12 0.00
13 0.00
14 0.00
15 0.00
16 0.00
17 0.00
18 0.00
19 0.00
20 0.00
21 0.00
22 0.00
23 0.00
24 0.00
25 0.00
26 0.00
27 0.00
28 0.00
29 0.00
30 0.00
31 0.00

@<SCITEGIC>ATOM_PROPERTY
pdb_occupancy
SciTegic.value.DoubleValue
1 1.00
2 1.00
3 1.00
4 1.00
5 1.00
6 1.00
7 1.00
8 1.00
9 1.00
10 1.00
11 1.00
12 1.00
13 1.00
14 1.00
15 1.00
16 1.00
17 1.00
18 1.00
19 1.00
20 1.00
21 1.00
22 1.00
23 1.00
24 1.00
25 1.00
26 1.00
27 1.00
28 1.00
29 1.00
30 1.00
31 1.00

#	copyright 2023 drugdesign.org
#	Creation time:	2024-01-11T10:58:48Z

@<SCITEGIC>ROOT_PROPERTY
Ligand:MaximumNumberOfAtoms
SciTegic.value.IntegerValue
100

@<SCITEGIC>ROOT_PROPERTY
Ligand:HydrogenAtomsCountTowardsMaximum
SciTegic.value.BooleanValue
FALSE

@<TRIPOS>MOLECULE
2_bond_rotate_all.sd
   31    33     0 0 0
SMALL
USER_CHARGES


@<TRIPOS>ATOM
      1 C1            0.000000    0.000000   -2.977000 C.2      1 SUBUNIT    0.0268
      2 N2           -0.702300    1.216400   -2.977000 N.2      1 SUBUNIT   -0.2639
      3 C3           -2.106800    1.216400   -2.977000 C.2      1 SUBUNIT    0.0393
      4 C4           -2.809000    0.000000   -2.977000 C.2      1 SUBUNIT    0.0557
      5 C5           -2.106800   -1.216400   -2.977000 C.2      1 SUBUNIT   -0.0466
      6 C6           -0.702200   -1.216400   -2.977000 C.2      1 SUBUNIT   -0.0430
      7 H7            1.103400    0.000000   -2.977000 H        1 SUBUNIT    0.0840
      8 H8           -2.658500    2.172000   -2.977000 H        1 SUBUNIT    0.0848
      9 H9           -2.658500   -2.171900   -2.977000 H        1 SUBUNIT    0.0632
     10 H10          -0.150500   -2.172000   -2.977000 H        1 SUBUNIT    0.0639
     11 C11          -4.137600   -0.014300   -2.977000 C.2      1 SUBUNIT    0.2487
     12 N12          -4.821300    0.576700   -1.940600 N.am     1 SUBUNIT   -0.2816
     13 O13          -4.740700   -0.551500   -3.896200 O.2      1 SUBUNIT   -0.2715
     14 H14          -4.217900    0.992100   -1.232400 H        1 SUBUNIT    0.1560
     15 C15          -6.135200    0.564000   -1.938300 C.2      1 SUBUNIT    0.0291
     16 C16          -6.843700   -0.048200   -2.985300 C.2      1 SUBUNIT   -0.0552
     17 C17          -8.235700    1.160600   -0.865800 C.2      1 SUBUNIT   -0.0749
     18 C18          -6.831200    1.168400   -0.878500 C.2      1 SUBUNIT   -0.0444
     19 H19          -6.296800   -0.523000   -3.817800 H        1 SUBUNIT    0.0602
     20 H20          -8.782500    1.635400   -0.033300 H        1 SUBUNIT    0.0583
     21 H21          -6.274700    1.649300   -0.056000 H        1 SUBUNIT    0.0639
     22 C22         -10.297000    0.555800   -1.874800 C.2      1 SUBUNIT   -0.0756
     23 C23         -11.005500   -0.056300   -2.921800 C.2      1 SUBUNIT   -0.0517
     24 C24         -10.309500   -0.660700   -3.981500 C.2      1 SUBUNIT    0.0138
     25 C25          -8.905100   -0.652900   -3.994200 C.2      1 SUBUNIT   -0.0624
     26 C26          -8.196500   -0.040800   -2.947300 C.3      1 SUBUNIT    0.0480
     27 C27          -8.892600    0.563600   -1.887500 C.3      1 SUBUNIT    0.0452
     28 H28         -10.843800    1.030600   -1.042300 H        1 SUBUNIT    0.0583
     29 H29         -12.108900   -0.062300   -2.911800 H        1 SUBUNIT    0.0631
     30 Br30        -11.282300   -1.501100   -5.419100 Br       1 SUBUNIT   -0.0512
     31 H31          -8.358300   -1.127700   -4.826700 H        1 SUBUNIT    0.0594
@<TRIPOS>BOND
     1    1    2 2
     2    1    6 1
     3    1    7 1
     4    2    3 1
     5    3    4 2
     6    3    8 1
     7    4    5 1
     8    4   11 1
     9    5    6 2
    10    5    9 1
    11    6   10 1
    12   11   12 1
    13   11   13 2
    14   12   14 1
    15   12   15 1
    16   15   16 2
    17   15   18 1
    18   16   26 1
    19   16   19 1
    20   17   27 1
    21   17   18 2
    22   17   20 1
    23   18   21 1
    24   22   23 2
    25   22   27 1
    26   22   28 1
    27   23   24 1
    28   23   29 1
    29   24   25 2
    30   24   30 1
    31   25   26 1
    32   25   31 1
    33   26   27 1
@<SCITEGIC>ATOM_PROPERTY
Formal Charge
SciTegic.value.StringValue
1 0
2 0
3 0
4 0
5 0
6 0
7 0
8 0
9 0
10 0
11 0
12 0
13 0
14 0
15 0
16 0
17 0
18 0
19 0
20 0
21 0
22 0
23 0
24 0
25 0
26 0
27 0
28 0
29 0
30 0
31 0

@<SCITEGIC>ATOM_PROPERTY
pdb_tempFactor
SciTegic.value.DoubleValue
1 0.00
2 0.00
3 0.00
4 0.00
5 0.00
6 0.00
7 0.00
8 0.00
9 0.00
10 0.00
11 0.00
12 0.00
13 0.00
14 0.00
15 0.00
16 0.00
17 0.00
18 0.00
19 0.00
20 0.00
21 0.00
22 0.00
23 0.00
24 0.00
25 0.00
26 0.00
27 0.00
28 0.00
29 0.00
30 0.00
31 0.00

@<SCITEGIC>ATOM_PROPERTY
pdb_occupancy
SciTegic.value.DoubleValue
1 1.00
2 1.00
3 1.00
4 1.00
5 1.00
6 1.00
7 1.00
8 1.00
9 1.00
10 1.00
11 1.00
12 1.00
13 1.00
14 1.00
15 1.00
16 1.00
17 1.00
18 1.00
19 1.00
20 1.00
21 1.00
22 1.00
23 1.00
24 1.00
25 1.00
26 1.00
27 1.00
28 1.00
29 1.00
30 1.00
31 1.00

#	copyright 2023 drugdesign.org
#	Creation time:	2024-01-11T10:58:48Z

@<SCITEGIC>ROOT_PROPERTY
Ligand:MaximumNumberOfAtoms
SciTegic.value.IntegerValue
100

@<SCITEGIC>ROOT_PROPERTY
Ligand:HydrogenAtomsCountTowardsMaximum
SciTegic.value.BooleanValue
FALSE

@<TRIPOS>MOLECULE
2_bond_rotate_all.sd
   31    33     0 0 0
SMALL
USER_CHARGES


@<TRIPOS>ATOM
      1 C1            0.000000    0.000000   -2.977000 C.2      1 SUBUNIT    0.0268
      2 N2           -0.702300    1.216400   -2.977000 N.2      1 SUBUNIT   -0.2639
      3 C3           -2.106800    1.216400   -2.977000 C.2      1 SUBUNIT    0.0393
      4 C4           -2.809000    0.000000   -2.977000 C.2      1 SUBUNIT    0.0557
      5 C5           -2.106800   -1.216400   -2.977000 C.2      1 SUBUNIT   -0.0466
      6 C6           -0.702200   -1.216400   -2.977000 C.2      1 SUBUNIT   -0.0430
      7 H7            1.103400    0.000000   -2.977000 H        1 SUBUNIT    0.0840
      8 H8           -2.658500    2.172000   -2.977000 H        1 SUBUNIT    0.0848
      9 H9           -2.658500   -2.171900   -2.977000 H        1 SUBUNIT    0.0632
     10 H10          -0.150500   -2.172000   -2.977000 H        1 SUBUNIT    0.0639
     11 C11          -4.137600   -0.014300   -2.977000 C.2      1 SUBUNIT    0.2487
     12 N12          -4.821300    0.576700   -1.940600 N.am     1 SUBUNIT   -0.2816
     13 O13          -4.740700   -0.551500   -3.896200 O.2      1 SUBUNIT   -0.2715
     14 H14          -4.217900    0.992100   -1.232400 H        1 SUBUNIT    0.1560
     15 C15          -6.135200    0.564000   -1.938300 C.2      1 SUBUNIT    0.0291
     16 C16          -6.838600   -0.490900   -2.542700 C.2      1 SUBUNIT   -0.0552
     17 C17          -8.240900    1.612000   -1.316900 C.2      1 SUBUNIT   -0.0749
     18 C18          -6.836300    1.615400   -1.325400 C.2      1 SUBUNIT   -0.0444
     19 H19          -6.287600   -1.316900   -3.024200 H        1 SUBUNIT    0.0602
     20 H20          -8.791800    2.437900   -0.835500 H        1 SUBUNIT    0.0583
     21 H21          -6.283800    2.444100   -0.850500 H        1 SUBUNIT    0.0639
     22 C22         -10.297300    0.579500   -1.898400 C.2      1 SUBUNIT   -0.0756
     23 C23         -11.000700   -0.475400   -2.502900 C.2      1 SUBUNIT   -0.0517
     24 C24         -10.299500   -1.526800   -3.115800 C.2      1 SUBUNIT    0.0138
     25 C25          -8.895000   -1.523300   -3.124200 C.2      1 SUBUNIT   -0.0624
     26 C26          -8.191600   -0.468500   -2.519700 C.3      1 SUBUNIT    0.0480
     27 C27          -8.892800    0.582900   -1.906800 C.3      1 SUBUNIT    0.0452
     28 H28         -10.848100    1.405500   -1.417000 H        1 SUBUNIT    0.0583
     29 H29         -12.104100   -0.478000   -2.496200 H        1 SUBUNIT    0.0631
     30 Br30        -11.265300   -2.975200   -3.945700 Br       1 SUBUNIT   -0.0512
     31 H31          -8.344200   -2.349300   -3.605600 H        1 SUBUNIT    0.0594
@<TRIPOS>BOND
     1    1    2 2
     2    1    6 1
     3    1    7 1
     4    2    3 1
     5    3    4 2
     6    3    8 1
     7    4    5 1
     8    4   11 1
     9    5    6 2
    10    5    9 1
    11    6   10 1
    12   11   12 1
    13   11   13 2
    14   12   14 1
    15   12   15 1
    16   15   16 2
    17   15   18 1
    18   16   26 1
    19   16   19 1
    20   17   27 1
    21   17   18 2
    22   17   20 1
    23   18   21 1
    24   22   23 2
    25   22   27 1
    26   22   28 1
    27   23   24 1
    28   23   29 1
    29   24   25 2
    30   24   30 1
    31   25   26 1
    32   25   31 1
    33   26   27 1
@<SCITEGIC>ATOM_PROPERTY
Formal Charge
SciTegic.value.StringValue
1 0
2 0
3 0
4 0
5 0
6 0
7 0
8 0
9 0
10 0
11 0
12 0
13 0
14 0
15 0
16 0
17 0
18 0
19 0
20 0
21 0
22 0
23 0
24 0
25 0
26 0
27 0
28 0
29 0
30 0
31 0

@<SCITEGIC>ATOM_PROPERTY
pdb_tempFactor
SciTegic.value.DoubleValue
1 0.00
2 0.00
3 0.00
4 0.00
5 0.00
6 0.00
7 0.00
8 0.00
9 0.00
10 0.00
11 0.00
12 0.00
13 0.00
14 0.00
15 0.00
16 0.00
17 0.00
18 0.00
19 0.00
20 0.00
21 0.00
22 0.00
23 0.00
24 0.00
25 0.00
26 0.00
27 0.00
28 0.00
29 0.00
30 0.00
31 0.00

@<SCITEGIC>ATOM_PROPERTY
pdb_occupancy
SciTegic.value.DoubleValue
1 1.00
2 1.00
3 1.00
4 1.00
5 1.00
6 1.00
7 1.00
8 1.00
9 1.00
10 1.00
11 1.00
12 1.00
13 1.00
14 1.00
15 1.00
16 1.00
17 1.00
18 1.00
19 1.00
20 1.00
21 1.00
22 1.00
23 1.00
24 1.00
25 1.00
26 1.00
27 1.00
28 1.00
29 1.00
30 1.00
31 1.00

#	copyright 2023 drugdesign.org
#	Creation time:	2024-01-11T10:58:48Z

@<SCITEGIC>ROOT_PROPERTY
Ligand:MaximumNumberOfAtoms
SciTegic.value.IntegerValue
100

@<SCITEGIC>ROOT_PROPERTY
Ligand:HydrogenAtomsCountTowardsMaximum
SciTegic.value.BooleanValue
FALSE

@<TRIPOS>MOLECULE
2_bond_rotate_all.sd
   31    33     0 0 0
SMALL
USER_CHARGES


@<TRIPOS>ATOM
      1 C1            0.000000    0.000000   -2.977000 C.2      1 SUBUNIT    0.0268
      2 N2           -0.702300    1.216400   -2.977000 N.2      1 SUBUNIT   -0.2639
      3 C3           -2.106800    1.216400   -2.977000 C.2      1 SUBUNIT    0.0393
      4 C4           -2.809000    0.000000   -2.977000 C.2      1 SUBUNIT    0.0557
      5 C5           -2.106800   -1.216400   -2.977000 C.2      1 SUBUNIT   -0.0466
      6 C6           -0.702200   -1.216400   -2.977000 C.2      1 SUBUNIT   -0.0430
      7 H7            1.103400    0.000000   -2.977000 H        1 SUBUNIT    0.0840
      8 H8           -2.658500    2.172000   -2.977000 H        1 SUBUNIT    0.0848
      9 H9           -2.658500   -2.171900   -2.977000 H        1 SUBUNIT    0.0632
     10 H10          -0.150500   -2.172000   -2.977000 H        1 SUBUNIT    0.0639
     11 C11          -4.137600   -0.014300   -2.977000 C.2      1 SUBUNIT    0.2487
     12 N12          -4.821300    0.576700   -1.940600 N.am     1 SUBUNIT   -0.2816
     13 O13          -4.740700   -0.551500   -3.896200 O.2      1 SUBUNIT   -0.2715
     14 H14          -4.217900    0.992100   -1.232400 H        1 SUBUNIT    0.1560
     15 C15          -6.135200    0.564000   -1.938300 C.2      1 SUBUNIT    0.0291
     16 C16          -6.835900   -0.653400   -1.937000 C.2      1 SUBUNIT   -0.0552
     17 C17          -8.243600    1.777600   -1.934500 C.2      1 SUBUNIT   -0.0749
     18 C18          -6.839000    1.779400   -1.937000 C.2      1 SUBUNIT   -0.0444
     19 H19          -6.282800   -1.608200   -1.937900 H        1 SUBUNIT    0.0602
     20 H20          -8.796600    2.732400   -1.933500 H        1 SUBUNIT    0.0583
     21 H21          -6.288600    2.735800   -1.938000 H        1 SUBUNIT    0.0639
     22 C22         -10.297500    0.588100   -1.930800 C.2      1 SUBUNIT   -0.0756
     23 C23         -10.998200   -0.629200   -1.929500 C.2      1 SUBUNIT   -0.0517
     24 C24         -10.294300   -1.844600   -1.930700 C.2      1 SUBUNIT    0.0138
     25 C25          -8.889800   -1.842700   -1.933200 C.2      1 SUBUNIT   -0.0624
     26 C26          -8.189000   -0.625500   -1.934500 C.3      1 SUBUNIT    0.0480
     27 C27          -8.892900    0.590000   -1.933300 C.3      1 SUBUNIT    0.0452
     28 H28         -10.850400    1.543000   -1.929800 H        1 SUBUNIT    0.0583
     29 H29         -12.101600   -0.630600   -1.927500 H        1 SUBUNIT    0.0631
     30 Br30        -11.256400   -3.516000   -1.929000 Br       1 SUBUNIT   -0.0512
     31 H31          -8.336800   -2.797600   -1.934200 H        1 SUBUNIT    0.0594
@<TRIPOS>BOND
     1    1    2 2
     2    1    6 1
     3    1    7 1
     4    2    3 1
     5    3    4 2
     6    3    8 1
     7    4    5 1
     8    4   11 1
     9    5    6 2
    10    5    9 1
    11    6   10 1
    12   11   12 1
    13   11   13 2
    14   12   14 1
    15   12   15 1
    16   15   16 2
    17   15   18 1
    18   16   26 1
    19   16   19 1
    20   17   27 1
    21   17   18 2
    22   17   20 1
    23   18   21 1
    24   22   23 2
    25   22   27 1
    26   22   28 1
    27   23   24 1
    28   23   29 1
    29   24   25 2
    30   24   30 1
    31   25   26 1
    32   25   31 1
    33   26   27 1
@<SCITEGIC>ATOM_PROPERTY
Formal Charge
SciTegic.value.StringValue
1 0
2 0
3 0
4 0
5 0
6 0
7 0
8 0
9 0
10 0
11 0
12 0
13 0
14 0
15 0
16 0
17 0
18 0
19 0
20 0
21 0
22 0
23 0
24 0
25 0
26 0
27 0
28 0
29 0
30 0
31 0

@<SCITEGIC>ATOM_PROPERTY
pdb_tempFactor
SciTegic.value.DoubleValue
1 0.00
2 0.00
3 0.00
4 0.00
5 0.00
6 0.00
7 0.00
8 0.00
9 0.00
10 0.00
11 0.00
12 0.00
13 0.00
14 0.00
15 0.00
16 0.00
17 0.00
18 0.00
19 0.00
20 0.00
21 0.00
22 0.00
23 0.00
24 0.00
25 0.00
26 0.00
27 0.00
28 0.00
29 0.00
30 0.00
31 0.00

@<SCITEGIC>ATOM_PROPERTY
pdb_occupancy
SciTegic.value.DoubleValue
1 1.00
2 1.00
3 1.00
4 1.00
5 1.00
6 1.00
7 1.00
8 1.00
9 1.00
10 1.00
11 1.00
12 1.00
13 1.00
14 1.00
15 1.00
16 1.00
17 1.00
18 1.00
19 1.00
20 1.00
21 1.00
22 1.00
23 1.00
24 1.00
25 1.00
26 1.00
27 1.00
28 1.00
29 1.00
30 1.00
31 1.00

#	copyright 2023 drugdesign.org
#	Creation time:	2024-01-11T10:58:48Z

@<SCITEGIC>ROOT_PROPERTY
Ligand:MaximumNumberOfAtoms
SciTegic.value.IntegerValue
100

@<SCITEGIC>ROOT_PROPERTY
Ligand:HydrogenAtomsCountTowardsMaximum
SciTegic.value.BooleanValue
FALSE

@<TRIPOS>MOLECULE
2_bond_rotate_all.sd
   31    33     0 0 0
SMALL
USER_CHARGES


@<TRIPOS>ATOM
      1 C1            0.000000    0.000000   -2.977000 C.2      1 SUBUNIT    0.0268
      2 N2           -0.702300    1.216400   -2.977000 N.2      1 SUBUNIT   -0.2639
      3 C3           -2.106800    1.216400   -2.977000 C.2      1 SUBUNIT    0.0393
      4 C4           -2.809000    0.000000   -2.977000 C.2      1 SUBUNIT    0.0557
      5 C5           -2.106800   -1.216400   -2.977000 C.2      1 SUBUNIT   -0.0466
      6 C6           -0.702200   -1.216400   -2.977000 C.2      1 SUBUNIT   -0.0430
      7 H7            1.103400    0.000000   -2.977000 H        1 SUBUNIT    0.0840
      8 H8           -2.658500    2.172000   -2.977000 H        1 SUBUNIT    0.0848
      9 H9           -2.658500   -2.171900   -2.977000 H        1 SUBUNIT    0.0632
     10 H10          -0.150500   -2.172000   -2.977000 H        1 SUBUNIT    0.0639
     11 C11          -4.137600   -0.014300   -2.977000 C.2      1 SUBUNIT    0.2487
     12 N12          -4.821300    0.576700   -1.940600 N.am     1 SUBUNIT   -0.2816
     13 O13          -4.740700   -0.551500   -3.896200 O.2      1 SUBUNIT   -0.2715
     14 H14          -4.217900    0.992100   -1.232400 H        1 SUBUNIT    0.1560
     15 C15          -6.135200    0.564000   -1.938300 C.2      1 SUBUNIT    0.0291
     16 C16          -6.836400   -0.491200   -1.331700 C.2      1 SUBUNIT   -0.0552
     17 C17          -8.243100    1.612300   -2.551500 C.2      1 SUBUNIT   -0.0749
     18 C18          -6.838500    1.615700   -2.548100 C.2      1 SUBUNIT   -0.0444
     19 H19          -6.283700   -1.317400   -0.852600 H        1 SUBUNIT    0.0602
     20 H20          -8.795700    2.438400   -3.030600 H        1 SUBUNIT    0.0583
     21 H21          -6.287700    2.444600   -3.024600 H        1 SUBUNIT    0.0639
     22 C22         -10.297400    0.579500   -1.963000 C.2      1 SUBUNIT   -0.0756
     23 C23         -10.998600   -0.475700   -1.356500 C.2      1 SUBUNIT   -0.0517
     24 C24         -10.295300   -1.527300   -0.746700 C.2      1 SUBUNIT    0.0138
     25 C25          -8.890700   -1.523900   -0.743300 C.2      1 SUBUNIT   -0.0624
     26 C26          -8.189500   -0.468800   -1.349800 C.3      1 SUBUNIT    0.0480
     27 C27          -8.892900    0.583000   -1.959700 C.3      1 SUBUNIT    0.0452
     28 H28         -10.850000    1.405700   -2.442100 H        1 SUBUNIT    0.0583
     29 H29         -12.102100   -0.478300   -1.359200 H        1 SUBUNIT    0.0631
     30 Br30        -11.258000   -2.976100    0.086100 Br       1 SUBUNIT   -0.0512
     31 H31          -8.338200   -2.350100   -0.264200 H        1 SUBUNIT    0.0594
@<TRIPOS>BOND
     1    1    2 2
     2    1    6 1
     3    1    7 1
     4    2    3 1
     5    3    4 2
     6    3    8 1
     7    4    5 1
     8    4   11 1
     9    5    6 2
    10    5    9 1
    11    6   10 1
    12   11   12 1
    13   11   13 2
    14   12   14 1
    15   12   15 1
    16   15   16 2
    17   15   18 1
    18   16   26 1
    19   16   19 1
    20   17   27 1
    21   17   18 2
    22   17   20 1
    23   18   21 1
    24   22   23 2
    25   22   27 1
    26   22   28 1
    27   23   24 1
    28   23   29 1
    29   24   25 2
    30   24   30 1
    31   25   26 1
    32   25   31 1
    33   26   27 1
@<SCITEGIC>ATOM_PROPERTY
Formal Charge
SciTegic.value.StringValue
1 0
2 0
3 0
4 0
5 0
6 0
7 0
8 0
9 0
10 0
11 0
12 0
13 0
14 0
15 0
16 0
17 0
18 0
19 0
20 0
21 0
22 0
23 0
24 0
25 0
26 0
27 0
28 0
29 0
30 0
31 0

@<SCITEGIC>ATOM_PROPERTY
pdb_tempFactor
SciTegic.value.DoubleValue
1 0.00
2 0.00
3 0.00
4 0.00
5 0.00
6 0.00
7 0.00
8 0.00
9 0.00
10 0.00
11 0.00
12 0.00
13 0.00
14 0.00
15 0.00
16 0.00
17 0.00
18 0.00
19 0.00
20 0.00
21 0.00
22 0.00
23 0.00
24 0.00
25 0.00
26 0.00
27 0.00
28 0.00
29 0.00
30 0.00
31 0.00

@<SCITEGIC>ATOM_PROPERTY
pdb_occupancy
SciTegic.value.DoubleValue
1 1.00
2 1.00
3 1.00
4 1.00
5 1.00
6 1.00
7 1.00
8 1.00
9 1.00
10 1.00
11 1.00
12 1.00
13 1.00
14 1.00
15 1.00
16 1.00
17 1.00
18 1.00
19 1.00
20 1.00
21 1.00
22 1.00
23 1.00
24 1.00
25 1.00
26 1.00
27 1.00
28 1.00
29 1.00
30 1.00
31 1.00

#	copyright 2023 drugdesign.org
#	Creation time:	2024-01-11T10:58:48Z

@<SCITEGIC>ROOT_PROPERTY
Ligand:MaximumNumberOfAtoms
SciTegic.value.IntegerValue
100

@<SCITEGIC>ROOT_PROPERTY
Ligand:HydrogenAtomsCountTowardsMaximum
SciTegic.value.BooleanValue
FALSE

@<TRIPOS>MOLECULE
2_bond_rotate_all.sd
   31    33     0 0 0
SMALL
USER_CHARGES


@<TRIPOS>ATOM
      1 C1            0.000000    0.000000   -2.977000 C.2      1 SUBUNIT    0.0268
      2 N2           -0.702300    1.216400   -2.977000 N.2      1 SUBUNIT   -0.2639
      3 C3           -2.106800    1.216400   -2.977000 C.2      1 SUBUNIT    0.0393
      4 C4           -2.809000    0.000000   -2.977000 C.2      1 SUBUNIT    0.0557
      5 C5           -2.106800   -1.216400   -2.977000 C.2      1 SUBUNIT   -0.0466
      6 C6           -0.702200   -1.216400   -2.977000 C.2      1 SUBUNIT   -0.0430
      7 H7            1.103400    0.000000   -2.977000 H        1 SUBUNIT    0.0840
      8 H8           -2.658500    2.172000   -2.977000 H        1 SUBUNIT    0.0848
      9 H9           -2.658500   -2.171900   -2.977000 H        1 SUBUNIT    0.0632
     10 H10          -0.150500   -2.172000   -2.977000 H        1 SUBUNIT    0.0639
     11 C11          -4.137600   -0.014300   -2.977000 C.2      1 SUBUNIT    0.2487
     12 N12          -4.821300    0.576700   -1.940600 N.am     1 SUBUNIT   -0.2816
     13 O13          -4.740700   -0.551500   -3.896200 O.2      1 SUBUNIT   -0.2715
     14 H14          -4.217900    0.992100   -1.232400 H        1 SUBUNIT    0.1560
     15 C15          -6.135200    0.564000   -1.938300 C.2      1 SUBUNIT    0.0291
     16 C16          -6.839900   -0.048100   -0.888700 C.2      1 SUBUNIT   -0.0552
     17 C17          -8.239600    1.160600   -3.003200 C.2      1 SUBUNIT   -0.0749
     18 C18          -6.835000    1.168300   -2.995500 C.2      1 SUBUNIT   -0.0444
     19 H19          -6.290000   -0.522900   -0.058100 H        1 SUBUNIT    0.0602
     20 H20          -8.789400    1.635300   -3.833700 H        1 SUBUNIT    0.0583
     21 H21          -6.281400    1.649200   -3.820000 H        1 SUBUNIT    0.0639
     22 C22         -10.297200    0.555800   -1.986700 C.2      1 SUBUNIT   -0.0756
     23 C23         -11.001900   -0.056300   -0.937100 C.2      1 SUBUNIT   -0.0517
     24 C24         -10.302100   -0.660600    0.120100 C.2      1 SUBUNIT    0.0138
     25 C25          -8.897600   -0.652800    0.127700 C.2      1 SUBUNIT   -0.0624
     26 C26          -8.192900   -0.040800   -0.921800 C.3      1 SUBUNIT    0.0480
     27 C27          -8.892800    0.563600   -1.979000 C.3      1 SUBUNIT    0.0452
     28 H28         -10.847000    1.030600   -2.817200 H        1 SUBUNIT    0.0583
     29 H29         -12.105400   -0.062300   -0.943200 H        1 SUBUNIT    0.0631
     30 Br30        -11.269700   -1.501000    1.561200 Br       1 SUBUNIT   -0.0512
     31 H31          -8.347900   -1.127600    0.958300 H        1 SUBUNIT    0.0594
@<TRIPOS>BOND
     1    1    2 2
     2    1    6 1
     3    1    7 1
     4    2    3 1
     5    3    4 2
     6    3    8 1
     7    4    5 1
     8    4   11 1
     9    5    6 2
    10    5    9 1
    11    6   10 1
    12   11   12 1
    13   11   13 2
    14   12   14 1
    15   12   15 1
    16   15   16 2
    17   15   18 1
    18   16   26 1
    19   16   19 1
    20   17   27 1
    21   17   18 2
    22   17   20 1
    23   18   21 1
    24   22   23 2
    25   22   27 1
    26   22   28 1
    27   23   24 1
    28   23   29 1
    29   24   25 2
    30   24   30 1
    31   25   26 1
    32   25   31 1
    33   26   27 1
@<SCITEGIC>ATOM_PROPERTY
Formal Charge
SciTegic.value.StringValue
1 0
2 0
3 0
4 0
5 0
6 0
7 0
8 0
9 0
10 0
11 0
12 0
13 0
14 0
15 0
16 0
17 0
18 0
19 0
20 0
21 0
22 0
23 0
24 0
25 0
26 0
27 0
28 0
29 0
30 0
31 0

@<SCITEGIC>ATOM_PROPERTY
pdb_tempFactor
SciTegic.value.DoubleValue
1 0.00
2 0.00
3 0.00
4 0.00
5 0.00
6 0.00
7 0.00
8 0.00
9 0.00
10 0.00
11 0.00
12 0.00
13 0.00
14 0.00
15 0.00
16 0.00
17 0.00
18 0.00
19 0.00
20 0.00
21 0.00
22 0.00
23 0.00
24 0.00
25 0.00
26 0.00
27 0.00
28 0.00
29 0.00
30 0.00
31 0.00

@<SCITEGIC>ATOM_PROPERTY
pdb_occupancy
SciTegic.value.DoubleValue
1 1.00
2 1.00
3 1.00
4 1.00
5 1.00
6 1.00
7 1.00
8 1.00
9 1.00
10 1.00
11 1.00
12 1.00
13 1.00
14 1.00
15 1.00
16 1.00
17 1.00
18 1.00
19 1.00
20 1.00
21 1.00
22 1.00
23 1.00
24 1.00
25 1.00
26 1.00
27 1.00
28 1.00
29 1.00
30 1.00
31 1.00

#	copyright 2023 drugdesign.org
#	Creation time:	2024-01-11T10:58:48Z

@<SCITEGIC>ROOT_PROPERTY
Ligand:MaximumNumberOfAtoms
SciTegic.value.IntegerValue
100

@<SCITEGIC>ROOT_PROPERTY
Ligand:HydrogenAtomsCountTowardsMaximum
SciTegic.value.BooleanValue
FALSE

@<TRIPOS>MOLECULE
2_bond_rotate_all.sd
   31    33     0 0 0
SMALL
USER_CHARGES


@<TRIPOS>ATOM
      1 C1            0.000000    0.000000   -2.977000 C.2      1 SUBUNIT    0.0268
      2 N2           -0.702300    1.216400   -2.977000 N.2      1 SUBUNIT   -0.2639
      3 C3           -2.106800    1.216400   -2.977000 C.2      1 SUBUNIT    0.0393
      4 C4           -2.809000    0.000000   -2.977000 C.2      1 SUBUNIT    0.0557
      5 C5           -2.106800   -1.216400   -2.977000 C.2      1 SUBUNIT   -0.0466
      6 C6           -0.702200   -1.216400   -2.977000 C.2      1 SUBUNIT   -0.0430
      7 H7            1.103400    0.000000   -2.977000 H        1 SUBUNIT    0.0840
      8 H8           -2.658500    2.172000   -2.977000 H        1 SUBUNIT    0.0848
      9 H9           -2.658500   -2.171900   -2.977000 H        1 SUBUNIT    0.0632
     10 H10          -0.150500   -2.172000   -2.977000 H        1 SUBUNIT    0.0639
     11 C11          -4.137600   -0.014300   -2.977000 C.2      1 SUBUNIT    0.2487
     12 N12          -4.821300    0.576700   -1.940600 N.am     1 SUBUNIT   -0.2816
     13 O13          -4.740700   -0.551500   -3.896200 O.2      1 SUBUNIT   -0.2715
     14 H14          -4.217900    0.992100   -1.232400 H        1 SUBUNIT    0.1560
     15 C15          -6.135200    0.564000   -1.938300 C.2      1 SUBUNIT    0.0291
     16 C16          -6.845500    0.557100   -0.726500 C.2      1 SUBUNIT   -0.0552
     17 C17          -8.233900    0.543600   -3.168500 C.2      1 SUBUNIT   -0.0749
     18 C18          -6.829400    0.557200   -3.159200 C.2      1 SUBUNIT   -0.0444
     19 H19          -6.300000    0.562400    0.232700 H        1 SUBUNIT    0.0602
     20 H20          -8.779200    0.538300   -4.127600 H        1 SUBUNIT    0.0583
     21 H21          -6.271400    0.562700   -4.111200 H        1 SUBUNIT    0.0639
     22 C22         -10.296900    0.523600   -1.995300 C.2      1 SUBUNIT   -0.0756
     23 C23         -11.007200    0.516700   -0.783600 C.2      1 SUBUNIT   -0.0517
     24 C24         -10.313000    0.523400    0.437400 C.2      1 SUBUNIT    0.0138
     25 C25          -8.908600    0.537000    0.446600 C.2      1 SUBUNIT   -0.0624
     26 C26          -8.198300    0.543900   -0.765100 C.3      1 SUBUNIT    0.0480
     27 C27          -8.892500    0.537200   -1.986100 C.3      1 SUBUNIT    0.0452
     28 H28         -10.842300    0.518300   -2.954500 H        1 SUBUNIT    0.0583
     29 H29         -12.110600    0.506000   -0.790900 H        1 SUBUNIT    0.0631
     30 Br30        -11.288300    0.513900    2.101100 Br       1 SUBUNIT   -0.0512
     31 H31          -8.363300    0.542300    1.405800 H        1 SUBUNIT    0.0594
@<TRIPOS>BOND
     1    1    2 2
     2    1    6 1
     3    1    7 1
     4    2    3 1
     5    3    4 2
     6    3    8 1
     7    4    5 1
     8    4   11 1
     9    5    6 2
    10    5    9 1
    11    6   10 1
    12   11   12 1
    13   11   13 2
    14   12   14 1
    15   12   15 1
    16   15   16 2
    17   15   18 1
    18   16   26 1
    19   16   19 1
    20   17   27 1
    21   17   18 2
    22   17   20 1
    23   18   21 1
    24   22   23 2
    25   22   27 1
    26   22   28 1
    27   23   24 1
    28   23   29 1
    29   24   25 2
    30   24   30 1
    31   25   26 1
    32   25   31 1
    33   26   27 1
@<SCITEGIC>ATOM_PROPERTY
Formal Charge
SciTegic.value.StringValue
1 0
2 0
3 0
4 0
5 0
6 0
7 0
8 0
9 0
10 0
11 0
12 0
13 0
14 0
15 0
16 0
17 0
18 0
19 0
20 0
21 0
22 0
23 0
24 0
25 0
26 0
27 0
28 0
29 0
30 0
31 0

@<SCITEGIC>ATOM_PROPERTY
pdb_tempFactor
SciTegic.value.DoubleValue
1 0.00
2 0.00
3 0.00
4 0.00
5 0.00
6 0.00
7 0.00
8 0.00
9 0.00
10 0.00
11 0.00
12 0.00
13 0.00
14 0.00
15 0.00
16 0.00
17 0.00
18 0.00
19 0.00
20 0.00
21 0.00
22 0.00
23 0.00
24 0.00
25 0.00
26 0.00
27 0.00
28 0.00
29 0.00
30 0.00
31 0.00

@<SCITEGIC>ATOM_PROPERTY
pdb_occupancy
SciTegic.value.DoubleValue
1 1.00
2 1.00
3 1.00
4 1.00
5 1.00
6 1.00
7 1.00
8 1.00
9 1.00
10 1.00
11 1.00
12 1.00
13 1.00
14 1.00
15 1.00
16 1.00
17 1.00
18 1.00
19 1.00
20 1.00
21 1.00
22 1.00
23 1.00
24 1.00
25 1.00
26 1.00
27 1.00
28 1.00
29 1.00
30 1.00
31 1.00

#	copyright 2023 drugdesign.org
#	Creation time:	2024-01-11T10:58:48Z

@<SCITEGIC>ROOT_PROPERTY
Ligand:MaximumNumberOfAtoms
SciTegic.value.IntegerValue
100

@<SCITEGIC>ROOT_PROPERTY
Ligand:HydrogenAtomsCountTowardsMaximum
SciTegic.value.BooleanValue
FALSE

@<TRIPOS>MOLECULE
2_bond_rotate_all.sd
   31    33     0 0 0
SMALL
USER_CHARGES


@<TRIPOS>ATOM
      1 C1            0.000000    0.000000   -2.977000 C.2      1 SUBUNIT    0.0268
      2 N2           -0.702300    1.216400   -2.977000 N.2      1 SUBUNIT   -0.2639
      3 C3           -2.106800    1.216400   -2.977000 C.2      1 SUBUNIT    0.0393
      4 C4           -2.809000    0.000000   -2.977000 C.2      1 SUBUNIT    0.0557
      5 C5           -2.106800   -1.216400   -2.977000 C.2      1 SUBUNIT   -0.0466
      6 C6           -0.702200   -1.216400   -2.977000 C.2      1 SUBUNIT   -0.0430
      7 H7            1.103400    0.000000   -2.977000 H        1 SUBUNIT    0.0840
      8 H8           -2.658500    2.172000   -2.977000 H        1 SUBUNIT    0.0848
      9 H9           -2.658500   -2.171900   -2.977000 H        1 SUBUNIT    0.0632
     10 H10          -0.150500   -2.172000   -2.977000 H        1 SUBUNIT    0.0639
     11 C11          -4.137600   -0.014300   -2.977000 C.2      1 SUBUNIT    0.2487
     12 N12          -4.821300    0.576700   -1.940600 N.am     1 SUBUNIT   -0.2816
     13 O13          -4.740700   -0.551500   -3.896200 O.2      1 SUBUNIT   -0.2715
     14 H14          -4.217900    0.992100   -1.232400 H        1 SUBUNIT    0.1560
     15 C15          -6.135200    0.564000   -1.938300 C.2      1 SUBUNIT    0.0291
     16 C16          -6.851700    1.162300   -0.888700 C.2      1 SUBUNIT   -0.0552
     17 C17          -8.227600   -0.073400   -3.003200 C.2      1 SUBUNIT   -0.0749
     18 C18          -6.823100   -0.053900   -2.995500 C.2      1 SUBUNIT   -0.0444
     19 H19          -6.311100    1.647700   -0.058100 H        1 SUBUNIT    0.0602
     20 H20          -8.768100   -0.558700   -3.833700 H        1 SUBUNIT    0.0583
     21 H21          -6.260300   -0.523900   -3.820000 H        1 SUBUNIT    0.0639
     22 C22         -10.296600    0.491300   -1.986700 C.2      1 SUBUNIT   -0.0756
     23 C23         -11.013100    1.089600   -0.937100 C.2      1 SUBUNIT   -0.0517
     24 C24         -10.325100    1.707400    0.120100 C.2      1 SUBUNIT    0.0138
     25 C25          -8.920700    1.726900    0.127700 C.2      1 SUBUNIT   -0.0624
     26 C26          -8.204300    1.128600   -0.921800 C.3      1 SUBUNIT    0.0480
     27 C27          -8.892200    0.510800   -1.979000 C.3      1 SUBUNIT    0.0452
     28 H28         -10.837100    0.005900   -2.817200 H        1 SUBUNIT    0.0583
     29 H29         -12.116400    1.074200   -0.943200 H        1 SUBUNIT    0.0631
     30 Br30        -11.308800    2.528900    1.561200 Br       1 SUBUNIT   -0.0512
     31 H31          -8.380300    2.212300    0.958300 H        1 SUBUNIT    0.0594
@<TRIPOS>BOND
     1    1    2 2
     2    1    6 1
     3    1    7 1
     4    2    3 1
     5    3    4 2
     6    3    8 1
     7    4    5 1
     8    4   11 1
     9    5    6 2
    10    5    9 1
    11    6   10 1
    12   11   12 1
    13   11   13 2
    14   12   14 1
    15   12   15 1
    16   15   16 2
    17   15   18 1
    18   16   26 1
    19   16   19 1
    20   17   27 1
    21   17   18 2
    22   17   20 1
    23   18   21 1
    24   22   23 2
    25   22   27 1
    26   22   28 1
    27   23   24 1
    28   23   29 1
    29   24   25 2
    30   24   30 1
    31   25   26 1
    32   25   31 1
    33   26   27 1
@<SCITEGIC>ATOM_PROPERTY
Formal Charge
SciTegic.value.StringValue
1 0
2 0
3 0
4 0
5 0
6 0
7 0
8 0
9 0
10 0
11 0
12 0
13 0
14 0
15 0
16 0
17 0
18 0
19 0
20 0
21 0
22 0
23 0
24 0
25 0
26 0
27 0
28 0
29 0
30 0
31 0

@<SCITEGIC>ATOM_PROPERTY
pdb_tempFactor
SciTegic.value.DoubleValue
1 0.00
2 0.00
3 0.00
4 0.00
5 0.00
6 0.00
7 0.00
8 0.00
9 0.00
10 0.00
11 0.00
12 0.00
13 0.00
14 0.00
15 0.00
16 0.00
17 0.00
18 0.00
19 0.00
20 0.00
21 0.00
22 0.00
23 0.00
24 0.00
25 0.00
26 0.00
27 0.00
28 0.00
29 0.00
30 0.00
31 0.00

@<SCITEGIC>ATOM_PROPERTY
pdb_occupancy
SciTegic.value.DoubleValue
1 1.00
2 1.00
3 1.00
4 1.00
5 1.00
6 1.00
7 1.00
8 1.00
9 1.00
10 1.00
11 1.00
12 1.00
13 1.00
14 1.00
15 1.00
16 1.00
17 1.00
18 1.00
19 1.00
20 1.00
21 1.00
22 1.00
23 1.00
24 1.00
25 1.00
26 1.00
27 1.00
28 1.00
29 1.00
30 1.00
31 1.00

#	copyright 2023 drugdesign.org
#	Creation time:	2024-01-11T10:58:48Z

@<SCITEGIC>ROOT_PROPERTY
Ligand:MaximumNumberOfAtoms
SciTegic.value.IntegerValue
100

@<SCITEGIC>ROOT_PROPERTY
Ligand:HydrogenAtomsCountTowardsMaximum
SciTegic.value.BooleanValue
FALSE

@<TRIPOS>MOLECULE
2_bond_rotate_all.sd
   31    33     0 0 0
SMALL
USER_CHARGES


@<TRIPOS>ATOM
      1 C1            0.000000    0.000000   -2.977000 C.2      1 SUBUNIT    0.0268
      2 N2           -0.702300    1.216400   -2.977000 N.2      1 SUBUNIT   -0.2639
      3 C3           -2.106800    1.216400   -2.977000 C.2      1 SUBUNIT    0.0393
      4 C4           -2.809000    0.000000   -2.977000 C.2      1 SUBUNIT    0.0557
      5 C5           -2.106800   -1.216400   -2.977000 C.2      1 SUBUNIT   -0.0466
      6 C6           -0.702200   -1.216400   -2.977000 C.2      1 SUBUNIT   -0.0430
      7 H7            1.103400    0.000000   -2.977000 H        1 SUBUNIT    0.0840
      8 H8           -2.658500    2.172000   -2.977000 H        1 SUBUNIT    0.0848
      9 H9           -2.658500   -2.171900   -2.977000 H        1 SUBUNIT    0.0632
     10 H10          -0.150500   -2.172000   -2.977000 H        1 SUBUNIT    0.0639
     11 C11          -4.137600   -0.014300   -2.977000 C.2      1 SUBUNIT    0.2487
     12 N12          -4.821300    0.576700   -1.940600 N.am     1 SUBUNIT   -0.2816
     13 O13          -4.740700   -0.551500   -3.896200 O.2      1 SUBUNIT   -0.2715
     14 H14          -4.217900    0.992100   -1.232400 H        1 SUBUNIT    0.1560
     15 C15          -6.135200    0.564000   -1.938300 C.2      1 SUBUNIT    0.0291
     16 C16          -6.856700    1.605000   -1.331200 C.2      1 SUBUNIT   -0.0552
     17 C17          -8.222400   -0.524700   -2.552000 C.2      1 SUBUNIT   -0.0749
     18 C18          -6.818000   -0.500900   -2.548600 C.2      1 SUBUNIT   -0.0444
     19 H19          -6.320200    2.441600   -0.851700 H        1 SUBUNIT    0.0602
     20 H20          -8.758800   -1.361200   -3.031500 H        1 SUBUNIT    0.0583
     21 H21          -6.251200   -1.318700   -3.025500 H        1 SUBUNIT    0.0639
     22 C22         -10.296300    0.467700   -1.963100 C.2      1 SUBUNIT   -0.0756
     23 C23         -11.017900    1.508700   -1.356000 C.2      1 SUBUNIT   -0.0517
     24 C24         -10.335100    2.573500   -0.745700 C.2      1 SUBUNIT    0.0138
     25 C25          -8.930800    2.597300   -0.742300 C.2      1 SUBUNIT   -0.0624
     26 C26          -8.209200    1.556400   -1.349300 C.3      1 SUBUNIT    0.0480
     27 C27          -8.892000    0.491500   -1.959700 C.3      1 SUBUNIT    0.0452
     28 H28         -10.832800   -0.368900   -2.442600 H        1 SUBUNIT    0.0583
     29 H29         -12.121200    1.489900   -1.358700 H        1 SUBUNIT    0.0631
     30 Br30        -11.325800    4.002900    0.087800 Br       1 SUBUNIT   -0.0512
     31 H31          -8.394300    3.433900   -0.262800 H        1 SUBUNIT    0.0594
@<TRIPOS>BOND
     1    1    2 2
     2    1    6 1
     3    1    7 1
     4    2    3 1
     5    3    4 2
     6    3    8 1
     7    4    5 1
     8    4   11 1
     9    5    6 2
    10    5    9 1
    11    6   10 1
    12   11   12 1
    13   11   13 2
    14   12   14 1
    15   12   15 1
    16   15   16 2
    17   15   18 1
    18   16   26 1
    19   16   19 1
    20   17   27 1
    21   17   18 2
    22   17   20 1
    23   18   21 1
    24   22   23 2
    25   22   27 1
    26   22   28 1
    27   23   24 1
    28   23   29 1
    29   24   25 2
    30   24   30 1
    31   25   26 1
    32   25   31 1
    33   26   27 1
@<SCITEGIC>ATOM_PROPERTY
Formal Charge
SciTegic.value.StringValue
1 0
2 0
3 0
4 0
5 0
6 0
7 0
8 0
9 0
10 0
11 0
12 0
13 0
14 0
15 0
16 0
17 0
18 0
19 0
20 0
21 0
22 0
23 0
24 0
25 0
26 0
27 0
28 0
29 0
30 0
31 0

@<SCITEGIC>ATOM_PROPERTY
pdb_tempFactor
SciTegic.value.DoubleValue
1 0.00
2 0.00
3 0.00
4 0.00
5 0.00
6 0.00
7 0.00
8 0.00
9 0.00
10 0.00
11 0.00
12 0.00
13 0.00
14 0.00
15 0.00
16 0.00
17 0.00
18 0.00
19 0.00
20 0.00
21 0.00
22 0.00
23 0.00
24 0.00
25 0.00
26 0.00
27 0.00
28 0.00
29 0.00
30 0.00
31 0.00

@<SCITEGIC>ATOM_PROPERTY
pdb_occupancy
SciTegic.value.DoubleValue
1 1.00
2 1.00
3 1.00
4 1.00
5 1.00
6 1.00
7 1.00
8 1.00
9 1.00
10 1.00
11 1.00
12 1.00
13 1.00
14 1.00
15 1.00
16 1.00
17 1.00
18 1.00
19 1.00
20 1.00
21 1.00
22 1.00
23 1.00
24 1.00
25 1.00
26 1.00
27 1.00
28 1.00
29 1.00
30 1.00
31 1.00

#	copyright 2023 drugdesign.org
#	Creation time:	2024-01-11T10:58:48Z

@<SCITEGIC>ROOT_PROPERTY
Ligand:MaximumNumberOfAtoms
SciTegic.value.IntegerValue
100

@<SCITEGIC>ROOT_PROPERTY
Ligand:HydrogenAtomsCountTowardsMaximum
SciTegic.value.BooleanValue
FALSE

@<TRIPOS>MOLECULE
2_bond_rotate_all.sd
   31    33     0 0 0
SMALL
USER_CHARGES


@<TRIPOS>ATOM
      1 C1            0.000000    0.000000   -2.977000 C.2      1 SUBUNIT    0.0268
      2 N2           -0.702300    1.216400   -2.977000 N.2      1 SUBUNIT   -0.2639
      3 C3           -2.106800    1.216400   -2.977000 C.2      1 SUBUNIT    0.0393
      4 C4           -2.809000    0.000000   -2.977000 C.2      1 SUBUNIT    0.0557
      5 C5           -2.106800   -1.216400   -2.977000 C.2      1 SUBUNIT   -0.0466
      6 C6           -0.702200   -1.216400   -2.977000 C.2      1 SUBUNIT   -0.0430
      7 H7            1.103400    0.000000   -2.977000 H        1 SUBUNIT    0.0840
      8 H8           -2.658500    2.172000   -2.977000 H        1 SUBUNIT    0.0848
      9 H9           -2.658500   -2.171900   -2.977000 H        1 SUBUNIT    0.0632
     10 H10          -0.150500   -2.172000   -2.977000 H        1 SUBUNIT    0.0639
     11 C11          -4.137600   -0.014300   -2.977000 C.2      1 SUBUNIT    0.2487
     12 N12          -4.821300    0.576700   -1.940600 N.am     1 SUBUNIT   -0.2816
     13 O13          -4.740700   -0.551500   -3.896200 O.2      1 SUBUNIT   -0.2715
     14 H14          -4.217900    0.992100   -1.232400 H        1 SUBUNIT    0.1560
     15 C15          -6.135200    0.564000   -1.938300 C.2      1 SUBUNIT    0.0291
     16 C16          -6.859400    1.767500   -1.937000 C.2      1 SUBUNIT   -0.0552
     17 C17          -8.219700   -0.690300   -1.934500 C.2      1 SUBUNIT   -0.0749
     18 C18          -6.815300   -0.664900   -1.937000 C.2      1 SUBUNIT   -0.0444
     19 H19          -6.325000    2.732900   -1.937900 H        1 SUBUNIT    0.0602
     20 H20          -8.754000   -1.655700   -1.933500 H        1 SUBUNIT    0.0583
     21 H21          -6.246400   -1.610400   -1.938000 H        1 SUBUNIT    0.0639
     22 C22         -10.296200    0.459000   -1.930800 C.2      1 SUBUNIT   -0.0756
     23 C23         -11.020400    1.662500   -1.929500 C.2      1 SUBUNIT   -0.0517
     24 C24         -10.340300    2.891300   -1.930700 C.2      1 SUBUNIT    0.0138
     25 C25          -8.936000    2.916700   -1.933300 C.2      1 SUBUNIT   -0.0624
     26 C26          -8.211800    1.713300   -1.934500 C.3      1 SUBUNIT    0.0480
     27 C27          -8.891900    0.484400   -1.933300 C.3      1 SUBUNIT    0.0452
     28 H28         -10.830500   -0.506400   -1.929800 H        1 SUBUNIT    0.0583
     29 H29         -12.123700    1.642400   -1.927500 H        1 SUBUNIT    0.0631
     30 Br30        -11.334700    4.543700   -1.929000 Br       1 SUBUNIT   -0.0512
     31 H31          -8.401700    3.882100   -1.934200 H        1 SUBUNIT    0.0594
@<TRIPOS>BOND
     1    1    2 2
     2    1    6 1
     3    1    7 1
     4    2    3 1
     5    3    4 2
     6    3    8 1
     7    4    5 1
     8    4   11 1
     9    5    6 2
    10    5    9 1
    11    6   10 1
    12   11   12 1
    13   11   13 2
    14   12   14 1
    15   12   15 1
    16   15   16 2
    17   15   18 1
    18   16   26 1
    19   16   19 1
    20   17   27 1
    21   17   18 2
    22   17   20 1
    23   18   21 1
    24   22   23 2
    25   22   27 1
    26   22   28 1
    27   23   24 1
    28   23   29 1
    29   24   25 2
    30   24   30 1
    31   25   26 1
    32   25   31 1
    33   26   27 1
@<SCITEGIC>ATOM_PROPERTY
Formal Charge
SciTegic.value.StringValue
1 0
2 0
3 0
4 0
5 0
6 0
7 0
8 0
9 0
10 0
11 0
12 0
13 0
14 0
15 0
16 0
17 0
18 0
19 0
20 0
21 0
22 0
23 0
24 0
25 0
26 0
27 0
28 0
29 0
30 0
31 0

@<SCITEGIC>ATOM_PROPERTY
pdb_tempFactor
SciTegic.value.DoubleValue
1 0.00
2 0.00
3 0.00
4 0.00
5 0.00
6 0.00
7 0.00
8 0.00
9 0.00
10 0.00
11 0.00
12 0.00
13 0.00
14 0.00
15 0.00
16 0.00
17 0.00
18 0.00
19 0.00
20 0.00
21 0.00
22 0.00
23 0.00
24 0.00
25 0.00
26 0.00
27 0.00
28 0.00
29 0.00
30 0.00
31 0.00

@<SCITEGIC>ATOM_PROPERTY
pdb_occupancy
SciTegic.value.DoubleValue
1 1.00
2 1.00
3 1.00
4 1.00
5 1.00
6 1.00
7 1.00
8 1.00
9 1.00
10 1.00
11 1.00
12 1.00
13 1.00
14 1.00
15 1.00
16 1.00
17 1.00
18 1.00
19 1.00
20 1.00
21 1.00
22 1.00
23 1.00
24 1.00
25 1.00
26 1.00
27 1.00
28 1.00
29 1.00
30 1.00
31 1.00

#	copyright 2023 drugdesign.org
#	Creation time:	2024-01-11T10:58:48Z

@<SCITEGIC>ROOT_PROPERTY
Ligand:MaximumNumberOfAtoms
SciTegic.value.IntegerValue
100

@<SCITEGIC>ROOT_PROPERTY
Ligand:HydrogenAtomsCountTowardsMaximum
SciTegic.value.BooleanValue
FALSE

@<TRIPOS>MOLECULE
2_bond_rotate_all.sd
   31    33     0 0 0
SMALL
USER_CHARGES


@<TRIPOS>ATOM
      1 C1            0.000000    0.000000   -2.977000 C.2      1 SUBUNIT    0.0268
      2 N2           -0.702300    1.216400   -2.977000 N.2      1 SUBUNIT   -0.2639
      3 C3           -2.106800    1.216400   -2.977000 C.2      1 SUBUNIT    0.0393
      4 C4           -2.809000    0.000000   -2.977000 C.2      1 SUBUNIT    0.0557
      5 C5           -2.106800   -1.216400   -2.977000 C.2      1 SUBUNIT   -0.0466
      6 C6           -0.702200   -1.216400   -2.977000 C.2      1 SUBUNIT   -0.0430
      7 H7            1.103400    0.000000   -2.977000 H        1 SUBUNIT    0.0840
      8 H8           -2.658500    2.172000   -2.977000 H        1 SUBUNIT    0.0848
      9 H9           -2.658500   -2.171900   -2.977000 H        1 SUBUNIT    0.0632
     10 H10          -0.150500   -2.172000   -2.977000 H        1 SUBUNIT    0.0639
     11 C11          -4.137600   -0.014300   -2.977000 C.2      1 SUBUNIT    0.2487
     12 N12          -4.821300    0.576700   -1.940600 N.am     1 SUBUNIT   -0.2816
     13 O13          -4.740700   -0.551500   -3.896200 O.2      1 SUBUNIT   -0.2715
     14 H14          -4.217900    0.992100   -1.232400 H        1 SUBUNIT    0.1560
     15 C15          -6.135200    0.564000   -1.938300 C.2      1 SUBUNIT    0.0291
     16 C16          -6.858900    1.605300   -2.542200 C.2      1 SUBUNIT   -0.0552
     17 C17          -8.220200   -0.525000   -1.317500 C.2      1 SUBUNIT   -0.0749
     18 C18          -6.815800   -0.501200   -1.325900 C.2      1 SUBUNIT   -0.0444
     19 H19          -6.324100    2.442100   -3.023300 H        1 SUBUNIT    0.0602
     20 H20          -8.754900   -1.361700   -0.836400 H        1 SUBUNIT    0.0583
     21 H21          -6.247300   -1.319200   -0.851400 H        1 SUBUNIT    0.0639
     22 C22         -10.296200    0.467600   -1.898500 C.2      1 SUBUNIT   -0.0756
     23 C23         -11.019900    1.509000   -2.502400 C.2      1 SUBUNIT   -0.0517
     24 C24         -10.339400    2.574100   -3.114800 C.2      1 SUBUNIT    0.0138
     25 C25          -8.935100    2.597900   -3.123200 C.2      1 SUBUNIT   -0.0624
     26 C26          -8.211300    1.556600   -2.519300 C.3      1 SUBUNIT    0.0480
     27 C27          -8.891900    0.491400   -1.906900 C.3      1 SUBUNIT    0.0452
     28 H28         -10.830900   -0.369100   -1.417400 H        1 SUBUNIT    0.0583
     29 H29         -12.123200    1.490100   -2.495800 H        1 SUBUNIT    0.0631
     30 Br30        -11.333100    4.003800   -3.944000 Br       1 SUBUNIT   -0.0512
     31 H31          -8.400400    3.434600   -3.604200 H        1 SUBUNIT    0.0594
@<TRIPOS>BOND
     1    1    2 2
     2    1    6 1
     3    1    7 1
     4    2    3 1
     5    3    4 2
     6    3    8 1
     7    4    5 1
     8    4   11 1
     9    5    6 2
    10    5    9 1
    11    6   10 1
    12   11   12 1
    13   11   13 2
    14   12   14 1
    15   12   15 1
    16   15   16 2
    17   15   18 1
    18   16   26 1
    19   16   19 1
    20   17   27 1
    21   17   18 2
    22   17   20 1
    23   18   21 1
    24   22   23 2
    25   22   27 1
    26   22   28 1
    27   23   24 1
    28   23   29 1
    29   24   25 2
    30   24   30 1
    31   25   26 1
    32   25   31 1
    33   26   27 1
@<SCITEGIC>ATOM_PROPERTY
Formal Charge
SciTegic.value.StringValue
1 0
2 0
3 0
4 0
5 0
6 0
7 0
8 0
9 0
10 0
11 0
12 0
13 0
14 0
15 0
16 0
17 0
18 0
19 0
20 0
21 0
22 0
23 0
24 0
25 0
26 0
27 0
28 0
29 0
30 0
31 0

@<SCITEGIC>ATOM_PROPERTY
pdb_tempFactor
SciTegic.value.DoubleValue
1 0.00
2 0.00
3 0.00
4 0.00
5 0.00
6 0.00
7 0.00
8 0.00
9 0.00
10 0.00
11 0.00
12 0.00
13 0.00
14 0.00
15 0.00
16 0.00
17 0.00
18 0.00
19 0.00
20 0.00
21 0.00
22 0.00
23 0.00
24 0.00
25 0.00
26 0.00
27 0.00
28 0.00
29 0.00
30 0.00
31 0.00

@<SCITEGIC>ATOM_PROPERTY
pdb_occupancy
SciTegic.value.DoubleValue
1 1.00
2 1.00
3 1.00
4 1.00
5 1.00
6 1.00
7 1.00
8 1.00
9 1.00
10 1.00
11 1.00
12 1.00
13 1.00
14 1.00
15 1.00
16 1.00
17 1.00
18 1.00
19 1.00
20 1.00
21 1.00
22 1.00
23 1.00
24 1.00
25 1.00
26 1.00
27 1.00
28 1.00
29 1.00
30 1.00
31 1.00

#	copyright 2023 drugdesign.org
#	Creation time:	2024-01-11T10:58:48Z

@<SCITEGIC>ROOT_PROPERTY
Ligand:MaximumNumberOfAtoms
SciTegic.value.IntegerValue
100

@<SCITEGIC>ROOT_PROPERTY
Ligand:HydrogenAtomsCountTowardsMaximum
SciTegic.value.BooleanValue
FALSE

@<TRIPOS>MOLECULE
2_bond_rotate_all.sd
   31    33     0 0 0
SMALL
USER_CHARGES


@<TRIPOS>ATOM
      1 C1            0.000000    0.000000   -2.977000 C.2      1 SUBUNIT    0.0268
      2 N2           -0.702300    1.216400   -2.977000 N.2      1 SUBUNIT   -0.2639
      3 C3           -2.106800    1.216400   -2.977000 C.2      1 SUBUNIT    0.0393
      4 C4           -2.809000    0.000000   -2.977000 C.2      1 SUBUNIT    0.0557
      5 C5           -2.106800   -1.216400   -2.977000 C.2      1 SUBUNIT   -0.0466
      6 C6           -0.702200   -1.216400   -2.977000 C.2      1 SUBUNIT   -0.0430
      7 H7            1.103400    0.000000   -2.977000 H        1 SUBUNIT    0.0840
      8 H8           -2.658500    2.172000   -2.977000 H        1 SUBUNIT    0.0848
      9 H9           -2.658500   -2.171900   -2.977000 H        1 SUBUNIT    0.0632
     10 H10          -0.150500   -2.172000   -2.977000 H        1 SUBUNIT    0.0639
     11 C11          -4.137600   -0.014300   -2.977000 C.2      1 SUBUNIT    0.2487
     12 N12          -4.821300    0.576700   -1.940600 N.am     1 SUBUNIT   -0.2816
     13 O13          -4.740700   -0.551500   -3.896200 O.2      1 SUBUNIT   -0.2715
     14 H14          -4.217900    0.992100   -1.232400 H        1 SUBUNIT    0.1560
     15 C15          -6.135200    0.564000   -1.938300 C.2      1 SUBUNIT    0.0291
     16 C16          -6.855400    1.162200   -2.985300 C.2      1 SUBUNIT   -0.0552
     17 C17          -8.223700   -0.073300   -0.865800 C.2      1 SUBUNIT   -0.0749
     18 C18          -6.819300   -0.053800   -0.878500 C.2      1 SUBUNIT   -0.0444
     19 H19          -6.317800    1.647600   -3.817800 H        1 SUBUNIT    0.0602
     20 H20          -8.761200   -0.558600   -0.033300 H        1 SUBUNIT    0.0583
     21 H21          -6.253600   -0.523800   -0.056000 H        1 SUBUNIT    0.0639
     22 C22         -10.296400    0.491300   -1.874800 C.2      1 SUBUNIT   -0.0756
     23 C23         -11.016600    1.089500   -2.921900 C.2      1 SUBUNIT   -0.0517
     24 C24         -10.332500    1.707300   -3.981500 C.2      1 SUBUNIT    0.0138
     25 C25          -8.928200    1.726800   -3.994200 C.2      1 SUBUNIT   -0.0624
     26 C26          -8.207900    1.128600   -2.947300 C.3      1 SUBUNIT    0.0480
     27 C27          -8.892100    0.510800   -1.887500 C.3      1 SUBUNIT    0.0452
     28 H28         -10.833900    0.005900   -1.042300 H        1 SUBUNIT    0.0583
     29 H29         -12.119900    1.074100   -2.911800 H        1 SUBUNIT    0.0631
     30 Br30        -11.321400    2.528700   -5.419100 Br       1 SUBUNIT   -0.0512
     31 H31          -8.390700    2.212100   -4.826700 H        1 SUBUNIT    0.0594
@<TRIPOS>BOND
     1    1    2 2
     2    1    6 1
     3    1    7 1
     4    2    3 1
     5    3    4 2
     6    3    8 1
     7    4    5 1
     8    4   11 1
     9    5    6 2
    10    5    9 1
    11    6   10 1
    12   11   12 1
    13   11   13 2
    14   12   14 1
    15   12   15 1
    16   15   16 2
    17   15   18 1
    18   16   26 1
    19   16   19 1
    20   17   27 1
    21   17   18 2
    22   17   20 1
    23   18   21 1
    24   22   23 2
    25   22   27 1
    26   22   28 1
    27   23   24 1
    28   23   29 1
    29   24   25 2
    30   24   30 1
    31   25   26 1
    32   25   31 1
    33   26   27 1
@<SCITEGIC>ATOM_PROPERTY
Formal Charge
SciTegic.value.StringValue
1 0
2 0
3 0
4 0
5 0
6 0
7 0
8 0
9 0
10 0
11 0
12 0
13 0
14 0
15 0
16 0
17 0
18 0
19 0
20 0
21 0
22 0
23 0
24 0
25 0
26 0
27 0
28 0
29 0
30 0
31 0

@<SCITEGIC>ATOM_PROPERTY
pdb_tempFactor
SciTegic.value.DoubleValue
1 0.00
2 0.00
3 0.00
4 0.00
5 0.00
6 0.00
7 0.00
8 0.00
9 0.00
10 0.00
11 0.00
12 0.00
13 0.00
14 0.00
15 0.00
16 0.00
17 0.00
18 0.00
19 0.00
20 0.00
21 0.00
22 0.00
23 0.00
24 0.00
25 0.00
26 0.00
27 0.00
28 0.00
29 0.00
30 0.00
31 0.00

@<SCITEGIC>ATOM_PROPERTY
pdb_occupancy
SciTegic.value.DoubleValue
1 1.00
2 1.00
3 1.00
4 1.00
5 1.00
6 1.00
7 1.00
8 1.00
9 1.00
10 1.00
11 1.00
12 1.00
13 1.00
14 1.00
15 1.00
16 1.00
17 1.00
18 1.00
19 1.00
20 1.00
21 1.00
22 1.00
23 1.00
24 1.00
25 1.00
26 1.00
27 1.00
28 1.00
29 1.00
30 1.00
31 1.00

#	copyright 2023 drugdesign.org
#	Creation time:	2024-01-11T10:58:48Z

@<SCITEGIC>ROOT_PROPERTY
Ligand:MaximumNumberOfAtoms
SciTegic.value.IntegerValue
100

@<SCITEGIC>ROOT_PROPERTY
Ligand:HydrogenAtomsCountTowardsMaximum
SciTegic.value.BooleanValue
FALSE

@<TRIPOS>MOLECULE
2_bond_rotate_all.sd
   31    33     0 0 0
SMALL
USER_CHARGES


@<TRIPOS>ATOM
      1 C1            0.000000    0.000000   -2.977000 C.2      1 SUBUNIT    0.0268
      2 N2           -0.702300    1.216400   -2.977000 N.2      1 SUBUNIT   -0.2639
      3 C3           -2.106800    1.216400   -2.977000 C.2      1 SUBUNIT    0.0393
      4 C4           -2.809000    0.000000   -2.977000 C.2      1 SUBUNIT    0.0557
      5 C5           -2.106800   -1.216400   -2.977000 C.2      1 SUBUNIT   -0.0466
      6 C6           -0.702200   -1.216400   -2.977000 C.2      1 SUBUNIT   -0.0430
      7 H7            1.103400    0.000000   -2.977000 H        1 SUBUNIT    0.0840
      8 H8           -2.658500    2.172000   -2.977000 H        1 SUBUNIT    0.0848
      9 H9           -2.658500   -2.171900   -2.977000 H        1 SUBUNIT    0.0632
     10 H10          -0.150500   -2.172000   -2.977000 H        1 SUBUNIT    0.0639
     11 C11          -4.137600   -0.014300   -2.977000 C.2      1 SUBUNIT    0.2487
     12 N12          -4.821300    0.576700   -1.940600 N.am     1 SUBUNIT   -0.2816
     13 O13          -4.740700   -0.551500   -3.896200 O.2      1 SUBUNIT   -0.2715
     14 H14          -4.217900    0.992100   -1.232400 H        1 SUBUNIT    0.1560
     15 C15          -6.135200    0.564000   -1.938300 C.2      1 SUBUNIT    0.0291
     16 C16          -6.849800    0.557000   -3.147400 C.2      1 SUBUNIT   -0.0552
     17 C17          -8.229400    0.543600   -0.700500 C.2      1 SUBUNIT   -0.0749
     18 C18          -6.825000    0.557300   -0.714800 C.2      1 SUBUNIT   -0.0444
     19 H19          -6.307800    0.562300   -4.108600 H        1 SUBUNIT    0.0602
     20 H20          -8.771300    0.538400    0.260600 H        1 SUBUNIT    0.0583
     21 H21          -6.263600    0.562700    0.235200 H        1 SUBUNIT    0.0639
     22 C22         -10.296700    0.523600   -1.866200 C.2      1 SUBUNIT   -0.0756
     23 C23         -11.011300    0.516600   -3.075400 C.2      1 SUBUNIT   -0.0517
     24 C24         -10.321600    0.523300   -4.298800 C.2      1 SUBUNIT    0.0138
     25 C25          -8.917200    0.537000   -4.313100 C.2      1 SUBUNIT   -0.0624
     26 C26          -8.202500    0.543900   -3.104000 C.3      1 SUBUNIT    0.0480
     27 C27          -8.892300    0.537200   -1.880400 C.3      1 SUBUNIT    0.0452
     28 H28         -10.838600    0.518300   -0.905000 H        1 SUBUNIT    0.0583
     29 H29         -12.114700    0.505900   -3.064000 H        1 SUBUNIT    0.0631
     30 Br30        -11.302800    0.513800   -5.959000 Br       1 SUBUNIT   -0.0512
     31 H31          -8.375300    0.542200   -5.274200 H        1 SUBUNIT    0.0594
@<TRIPOS>BOND
     1    1    2 2
     2    1    6 1
     3    1    7 1
     4    2    3 1
     5    3    4 2
     6    3    8 1
     7    4    5 1
     8    4   11 1
     9    5    6 2
    10    5    9 1
    11    6   10 1
    12   11   12 1
    13   11   13 2
    14   12   14 1
    15   12   15 1
    16   15   16 2
    17   15   18 1
    18   16   26 1
    19   16   19 1
    20   17   27 1
    21   17   18 2
    22   17   20 1
    23   18   21 1
    24   22   23 2
    25   22   27 1
    26   22   28 1
    27   23   24 1
    28   23   29 1
    29   24   25 2
    30   24   30 1
    31   25   26 1
    32   25   31 1
    33   26   27 1
@<SCITEGIC>ATOM_PROPERTY
Formal Charge
SciTegic.value.StringValue
1 0
2 0
3 0
4 0
5 0
6 0
7 0
8 0
9 0
10 0
11 0
12 0
13 0
14 0
15 0
16 0
17 0
18 0
19 0
20 0
21 0
22 0
23 0
24 0
25 0
26 0
27 0
28 0
29 0
30 0
31 0

@<SCITEGIC>ATOM_PROPERTY
pdb_tempFactor
SciTegic.value.DoubleValue
1 0.00
2 0.00
3 0.00
4 0.00
5 0.00
6 0.00
7 0.00
8 0.00
9 0.00
10 0.00
11 0.00
12 0.00
13 0.00
14 0.00
15 0.00
16 0.00
17 0.00
18 0.00
19 0.00
20 0.00
21 0.00
22 0.00
23 0.00
24 0.00
25 0.00
26 0.00
27 0.00
28 0.00
29 0.00
30 0.00
31 0.00

@<SCITEGIC>ATOM_PROPERTY
pdb_occupancy
SciTegic.value.DoubleValue
1 1.00
2 1.00
3 1.00
4 1.00
5 1.00
6 1.00
7 1.00
8 1.00
9 1.00
10 1.00
11 1.00
12 1.00
13 1.00
14 1.00
15 1.00
16 1.00
17 1.00
18 1.00
19 1.00
20 1.00
21 1.00
22 1.00
23 1.00
24 1.00
25 1.00
26 1.00
27 1.00
28 1.00
29 1.00
30 1.00
31 1.00

#	copyright 2023 drugdesign.org
#	Creation time:	2024-01-11T10:58:48Z

@<SCITEGIC>ROOT_PROPERTY
Ligand:MaximumNumberOfAtoms
SciTegic.value.IntegerValue
100

@<SCITEGIC>ROOT_PROPERTY
Ligand:HydrogenAtomsCountTowardsMaximum
SciTegic.value.BooleanValue
FALSE

@<TRIPOS>MOLECULE
2_bond_rotate_all.sd
   31    33     0 0 0
SMALL
USER_CHARGES


@<TRIPOS>ATOM
      1 C1            0.000000    0.000000   -2.977000 C.2      1 SUBUNIT    0.0268
      2 N2           -0.702300    1.216400   -2.977000 N.2      1 SUBUNIT   -0.2639
      3 C3           -2.106800    1.216400   -2.977000 C.2      1 SUBUNIT    0.0393
      4 C4           -2.809000    0.000000   -2.977000 C.2      1 SUBUNIT    0.0557
      5 C5           -2.106800   -1.216400   -2.977000 C.2      1 SUBUNIT   -0.0466
      6 C6           -0.702200   -1.216400   -2.977000 C.2      1 SUBUNIT   -0.0430
      7 H7            1.103400    0.000000   -2.977000 H        1 SUBUNIT    0.0840
      8 H8           -2.658500    2.172000   -2.977000 H        1 SUBUNIT    0.0848
      9 H9           -2.658500   -2.171900   -2.977000 H        1 SUBUNIT    0.0632
     10 H10          -0.150500   -2.172000   -2.977000 H        1 SUBUNIT    0.0639
     11 C11          -4.137600   -0.014300   -2.977000 C.2      1 SUBUNIT    0.2487
     12 N12          -4.826000    1.014700   -2.378600 N.am     1 SUBUNIT   -0.2816
     13 O13          -4.736500   -0.940000   -3.507700 O.2      1 SUBUNIT   -0.2715
     14 H14          -4.225800    1.729400   -1.969800 H        1 SUBUNIT    0.1560
     15 C15          -6.139900    1.003000   -2.377300 C.2      1 SUBUNIT    0.0291
     16 C16          -6.843600   -0.051700   -2.981800 C.2      1 SUBUNIT   -0.0552
     17 C17          -8.245300    2.052900   -1.758100 C.2      1 SUBUNIT   -0.0749
     18 C18          -6.840700    2.055200   -1.765400 C.2      1 SUBUNIT   -0.0444
     19 H19          -6.292900   -0.878300   -3.462400 H        1 SUBUNIT    0.0602
     20 H20          -8.795900    2.879400   -1.277500 H        1 SUBUNIT    0.0583
     21 H21          -6.287900    2.883800   -1.290500 H        1 SUBUNIT    0.0639
     22 C22         -10.302100    1.021600   -2.340700 C.2      1 SUBUNIT   -0.0756
     23 C23         -11.005800   -0.033000   -2.945200 C.2      1 SUBUNIT   -0.0517
     24 C24         -10.304900   -1.085200   -3.557000 C.2      1 SUBUNIT    0.0138
     25 C25          -8.900400   -1.082800   -3.564300 C.2      1 SUBUNIT   -0.0624
     26 C26          -8.196700   -0.028200   -2.959800 C.3      1 SUBUNIT    0.0480
     27 C27          -8.897500    1.024100   -2.348000 C.3      1 SUBUNIT    0.0452
     28 H28         -10.852600    1.848300   -1.860000 H        1 SUBUNIT    0.0583
     29 H29         -12.109200   -0.034800   -2.939300 H        1 SUBUNIT    0.0631
     30 Br30        -11.271200   -2.533200   -4.386900 Br       1 SUBUNIT   -0.0512
     31 H31          -8.349900   -1.909400   -4.044900 H        1 SUBUNIT    0.0594
@<TRIPOS>BOND
     1    1    2 2
     2    1    6 1
     3    1    7 1
     4    2    3 1
     5    3    4 2
     6    3    8 1
     7    4    5 1
     8    4   11 1
     9    5    6 2
    10    5    9 1
    11    6   10 1
    12   11   12 1
    13   11   13 2
    14   12   14 1
    15   12   15 1
    16   15   16 2
    17   15   18 1
    18   16   26 1
    19   16   19 1
    20   17   27 1
    21   17   18 2
    22   17   20 1
    23   18   21 1
    24   22   23 2
    25   22   27 1
    26   22   28 1
    27   23   24 1
    28   23   29 1
    29   24   25 2
    30   24   30 1
    31   25   26 1
    32   25   31 1
    33   26   27 1
@<SCITEGIC>ATOM_PROPERTY
Formal Charge
SciTegic.value.StringValue
1 0
2 0
3 0
4 0
5 0
6 0
7 0
8 0
9 0
10 0
11 0
12 0
13 0
14 0
15 0
16 0
17 0
18 0
19 0
20 0
21 0
22 0
23 0
24 0
25 0
26 0
27 0
28 0
29 0
30 0
31 0

@<SCITEGIC>ATOM_PROPERTY
pdb_tempFactor
SciTegic.value.DoubleValue
1 0.00
2 0.00
3 0.00
4 0.00
5 0.00
6 0.00
7 0.00
8 0.00
9 0.00
10 0.00
11 0.00
12 0.00
13 0.00
14 0.00
15 0.00
16 0.00
17 0.00
18 0.00
19 0.00
20 0.00
21 0.00
22 0.00
23 0.00
24 0.00
25 0.00
26 0.00
27 0.00
28 0.00
29 0.00
30 0.00
31 0.00

@<SCITEGIC>ATOM_PROPERTY
pdb_occupancy
SciTegic.value.DoubleValue
1 1.00
2 1.00
3 1.00
4 1.00
5 1.00
6 1.00
7 1.00
8 1.00
9 1.00
10 1.00
11 1.00
12 1.00
13 1.00
14 1.00
15 1.00
16 1.00
17 1.00
18 1.00
19 1.00
20 1.00
21 1.00
22 1.00
23 1.00
24 1.00
25 1.00
26 1.00
27 1.00
28 1.00
29 1.00
30 1.00
31 1.00

#	copyright 2023 drugdesign.org
#	Creation time:	2024-01-11T10:58:48Z

@<SCITEGIC>ROOT_PROPERTY
Ligand:MaximumNumberOfAtoms
SciTegic.value.IntegerValue
100

@<SCITEGIC>ROOT_PROPERTY
Ligand:HydrogenAtomsCountTowardsMaximum
SciTegic.value.BooleanValue
FALSE

@<TRIPOS>MOLECULE
2_bond_rotate_all.sd
   31    33     0 0 0
SMALL
USER_CHARGES


@<TRIPOS>ATOM
      1 C1            0.000000    0.000000   -2.977000 C.2      1 SUBUNIT    0.0268
      2 N2           -0.702300    1.216400   -2.977000 N.2      1 SUBUNIT   -0.2639
      3 C3           -2.106800    1.216400   -2.977000 C.2      1 SUBUNIT    0.0393
      4 C4           -2.809000    0.000000   -2.977000 C.2      1 SUBUNIT    0.0557
      5 C5           -2.106800   -1.216400   -2.977000 C.2      1 SUBUNIT   -0.0466
      6 C6           -0.702200   -1.216400   -2.977000 C.2      1 SUBUNIT   -0.0430
      7 H7            1.103400    0.000000   -2.977000 H        1 SUBUNIT    0.0840
      8 H8           -2.658500    2.172000   -2.977000 H        1 SUBUNIT    0.0848
      9 H9           -2.658500   -2.171900   -2.977000 H        1 SUBUNIT    0.0632
     10 H10          -0.150500   -2.172000   -2.977000 H        1 SUBUNIT    0.0639
     11 C11          -4.137600   -0.014300   -2.977000 C.2      1 SUBUNIT    0.2487
     12 N12          -4.826000    1.014700   -2.378600 N.am     1 SUBUNIT   -0.2816
     13 O13          -4.736500   -0.940000   -3.507700 O.2      1 SUBUNIT   -0.2715
     14 H14          -4.225800    1.729400   -1.969800 H        1 SUBUNIT    0.1560
     15 C15          -6.139900    1.003000   -2.377300 C.2      1 SUBUNIT    0.0291
     16 C16          -6.841600   -0.213800   -2.376500 C.2      1 SUBUNIT   -0.0552
     17 C17          -8.247400    2.218200   -2.375100 C.2      1 SUBUNIT   -0.0749
     18 C18          -6.842800    2.219000   -2.376600 C.2      1 SUBUNIT   -0.0444
     19 H19          -6.289200   -1.169100   -2.377100 H        1 SUBUNIT    0.0602
     20 H20          -8.799700    3.173400   -2.374500 H        1 SUBUNIT    0.0583
     21 H21          -6.291700    3.174900   -2.377100 H        1 SUBUNIT    0.0639
     22 C22         -10.302200    1.030300   -2.372900 C.2      1 SUBUNIT   -0.0756
     23 C23         -11.003800   -0.186500   -2.372200 C.2      1 SUBUNIT   -0.0517
     24 C24         -10.300900   -1.402500   -2.372900 C.2      1 SUBUNIT    0.0138
     25 C25          -8.896300   -1.401600   -2.374400 C.2      1 SUBUNIT   -0.0624
     26 C26          -8.194700   -0.184900   -2.375100 C.3      1 SUBUNIT    0.0480
     27 C27          -8.897600    1.031100   -2.374400 C.3      1 SUBUNIT    0.0452
     28 H28         -10.854400    1.985600   -2.372400 H        1 SUBUNIT    0.0583
     29 H29         -12.107300   -0.187000   -2.371100 H        1 SUBUNIT    0.0631
     30 Br30        -11.264200   -3.073100   -2.371900 Br       1 SUBUNIT   -0.0512
     31 H31          -8.344100   -2.356900   -2.374900 H        1 SUBUNIT    0.0594
@<TRIPOS>BOND
     1    1    2 2
     2    1    6 1
     3    1    7 1
     4    2    3 1
     5    3    4 2
     6    3    8 1
     7    4    5 1
     8    4   11 1
     9    5    6 2
    10    5    9 1
    11    6   10 1
    12   11   12 1
    13   11   13 2
    14   12   14 1
    15   12   15 1
    16   15   16 2
    17   15   18 1
    18   16   26 1
    19   16   19 1
    20   17   27 1
    21   17   18 2
    22   17   20 1
    23   18   21 1
    24   22   23 2
    25   22   27 1
    26   22   28 1
    27   23   24 1
    28   23   29 1
    29   24   25 2
    30   24   30 1
    31   25   26 1
    32   25   31 1
    33   26   27 1
@<SCITEGIC>ATOM_PROPERTY
Formal Charge
SciTegic.value.StringValue
1 0
2 0
3 0
4 0
5 0
6 0
7 0
8 0
9 0
10 0
11 0
12 0
13 0
14 0
15 0
16 0
17 0
18 0
19 0
20 0
21 0
22 0
23 0
24 0
25 0
26 0
27 0
28 0
29 0
30 0
31 0

@<SCITEGIC>ATOM_PROPERTY
pdb_tempFactor
SciTegic.value.DoubleValue
1 0.00
2 0.00
3 0.00
4 0.00
5 0.00
6 0.00
7 0.00
8 0.00
9 0.00
10 0.00
11 0.00
12 0.00
13 0.00
14 0.00
15 0.00
16 0.00
17 0.00
18 0.00
19 0.00
20 0.00
21 0.00
22 0.00
23 0.00
24 0.00
25 0.00
26 0.00
27 0.00
28 0.00
29 0.00
30 0.00
31 0.00

@<SCITEGIC>ATOM_PROPERTY
pdb_occupancy
SciTegic.value.DoubleValue
1 1.00
2 1.00
3 1.00
4 1.00
5 1.00
6 1.00
7 1.00
8 1.00
9 1.00
10 1.00
11 1.00
12 1.00
13 1.00
14 1.00
15 1.00
16 1.00
17 1.00
18 1.00
19 1.00
20 1.00
21 1.00
22 1.00
23 1.00
24 1.00
25 1.00
26 1.00
27 1.00
28 1.00
29 1.00
30 1.00
31 1.00

#	copyright 2023 drugdesign.org
#	Creation time:	2024-01-11T10:58:48Z

@<SCITEGIC>ROOT_PROPERTY
Ligand:MaximumNumberOfAtoms
SciTegic.value.IntegerValue
100

@<SCITEGIC>ROOT_PROPERTY
Ligand:HydrogenAtomsCountTowardsMaximum
SciTegic.value.BooleanValue
FALSE

@<TRIPOS>MOLECULE
2_bond_rotate_all.sd
   31    33     0 0 0
SMALL
USER_CHARGES


@<TRIPOS>ATOM
      1 C1            0.000000    0.000000   -2.977000 C.2      1 SUBUNIT    0.0268
      2 N2           -0.702300    1.216400   -2.977000 N.2      1 SUBUNIT   -0.2639
      3 C3           -2.106800    1.216400   -2.977000 C.2      1 SUBUNIT    0.0393
      4 C4           -2.809000    0.000000   -2.977000 C.2      1 SUBUNIT    0.0557
      5 C5           -2.106800   -1.216400   -2.977000 C.2      1 SUBUNIT   -0.0466
      6 C6           -0.702200   -1.216400   -2.977000 C.2      1 SUBUNIT   -0.0430
      7 H7            1.103400    0.000000   -2.977000 H        1 SUBUNIT    0.0840
      8 H8           -2.658500    2.172000   -2.977000 H        1 SUBUNIT    0.0848
      9 H9           -2.658500   -2.171900   -2.977000 H        1 SUBUNIT    0.0632
     10 H10          -0.150500   -2.172000   -2.977000 H        1 SUBUNIT    0.0639
     11 C11          -4.137600   -0.014300   -2.977000 C.2      1 SUBUNIT    0.2487
     12 N12          -4.826000    1.014700   -2.378600 N.am     1 SUBUNIT   -0.2816
     13 O13          -4.736500   -0.940000   -3.507700 O.2      1 SUBUNIT   -0.2715
     14 H14          -4.225800    1.729400   -1.969800 H        1 SUBUNIT    0.1560
     15 C15          -6.139900    1.003000   -2.377300 C.2      1 SUBUNIT    0.0291
     16 C16          -6.842400   -0.051700   -1.771300 C.2      1 SUBUNIT   -0.0552
     17 C17          -8.246600    2.052900   -2.992100 C.2      1 SUBUNIT   -0.0749
     18 C18          -6.842000    2.055200   -2.987700 C.2      1 SUBUNIT   -0.0444
     19 H19          -6.290700   -0.878300   -1.291800 H        1 SUBUNIT    0.0602
     20 H20          -8.798200    2.879400   -3.471600 H        1 SUBUNIT    0.0583
     21 H21          -6.290200    2.883700   -3.463700 H        1 SUBUNIT    0.0639
     22 C22         -10.302100    1.021600   -2.405200 C.2      1 SUBUNIT   -0.0756
     23 C23         -11.004600   -0.033000   -1.799300 C.2      1 SUBUNIT   -0.0517
     24 C24         -10.302500   -1.085200   -1.188900 C.2      1 SUBUNIT    0.0138
     25 C25          -8.898000   -1.082800   -1.184500 C.2      1 SUBUNIT   -0.0624
     26 C26          -8.195500   -0.028200   -1.790400 C.3      1 SUBUNIT    0.0480
     27 C27          -8.897600    1.024100   -2.400800 C.3      1 SUBUNIT    0.0452
     28 H28         -10.853700    1.848300   -2.884800 H        1 SUBUNIT    0.0583
     29 H29         -12.108000   -0.034800   -1.802800 H        1 SUBUNIT    0.0631
     30 Br30        -11.267000   -2.533200   -0.356900 Br       1 SUBUNIT   -0.0512
     31 H31          -8.346400   -1.909400   -0.705000 H        1 SUBUNIT    0.0594
@<TRIPOS>BOND
     1    1    2 2
     2    1    6 1
     3    1    7 1
     4    2    3 1
     5    3    4 2
     6    3    8 1
     7    4    5 1
     8    4   11 1
     9    5    6 2
    10    5    9 1
    11    6   10 1
    12   11   12 1
    13   11   13 2
    14   12   14 1
    15   12   15 1
    16   15   16 2
    17   15   18 1
    18   16   26 1
    19   16   19 1
    20   17   27 1
    21   17   18 2
    22   17   20 1
    23   18   21 1
    24   22   23 2
    25   22   27 1
    26   22   28 1
    27   23   24 1
    28   23   29 1
    29   24   25 2
    30   24   30 1
    31   25   26 1
    32   25   31 1
    33   26   27 1
@<SCITEGIC>ATOM_PROPERTY
Formal Charge
SciTegic.value.StringValue
1 0
2 0
3 0
4 0
5 0
6 0
7 0
8 0
9 0
10 0
11 0
12 0
13 0
14 0
15 0
16 0
17 0
18 0
19 0
20 0
21 0
22 0
23 0
24 0
25 0
26 0
27 0
28 0
29 0
30 0
31 0

@<SCITEGIC>ATOM_PROPERTY
pdb_tempFactor
SciTegic.value.DoubleValue
1 0.00
2 0.00
3 0.00
4 0.00
5 0.00
6 0.00
7 0.00
8 0.00
9 0.00
10 0.00
11 0.00
12 0.00
13 0.00
14 0.00
15 0.00
16 0.00
17 0.00
18 0.00
19 0.00
20 0.00
21 0.00
22 0.00
23 0.00
24 0.00
25 0.00
26 0.00
27 0.00
28 0.00
29 0.00
30 0.00
31 0.00

@<SCITEGIC>ATOM_PROPERTY
pdb_occupancy
SciTegic.value.DoubleValue
1 1.00
2 1.00
3 1.00
4 1.00
5 1.00
6 1.00
7 1.00
8 1.00
9 1.00
10 1.00
11 1.00
12 1.00
13 1.00
14 1.00
15 1.00
16 1.00
17 1.00
18 1.00
19 1.00
20 1.00
21 1.00
22 1.00
23 1.00
24 1.00
25 1.00
26 1.00
27 1.00
28 1.00
29 1.00
30 1.00
31 1.00

#	copyright 2023 drugdesign.org
#	Creation time:	2024-01-11T10:58:48Z

@<SCITEGIC>ROOT_PROPERTY
Ligand:MaximumNumberOfAtoms
SciTegic.value.IntegerValue
100

@<SCITEGIC>ROOT_PROPERTY
Ligand:HydrogenAtomsCountTowardsMaximum
SciTegic.value.BooleanValue
FALSE

@<TRIPOS>MOLECULE
2_bond_rotate_all.sd
   31    33     0 0 0
SMALL
USER_CHARGES


@<TRIPOS>ATOM
      1 C1            0.000000    0.000000   -2.977000 C.2      1 SUBUNIT    0.0268
      2 N2           -0.702300    1.216400   -2.977000 N.2      1 SUBUNIT   -0.2639
      3 C3           -2.106800    1.216400   -2.977000 C.2      1 SUBUNIT    0.0393
      4 C4           -2.809000    0.000000   -2.977000 C.2      1 SUBUNIT    0.0557
      5 C5           -2.106800   -1.216400   -2.977000 C.2      1 SUBUNIT   -0.0466
      6 C6           -0.702200   -1.216400   -2.977000 C.2      1 SUBUNIT   -0.0430
      7 H7            1.103400    0.000000   -2.977000 H        1 SUBUNIT    0.0840
      8 H8           -2.658500    2.172000   -2.977000 H        1 SUBUNIT    0.0848
      9 H9           -2.658500   -2.171900   -2.977000 H        1 SUBUNIT    0.0632
     10 H10          -0.150500   -2.172000   -2.977000 H        1 SUBUNIT    0.0639
     11 C11          -4.137600   -0.014300   -2.977000 C.2      1 SUBUNIT    0.2487
     12 N12          -4.826000    1.014700   -2.378600 N.am     1 SUBUNIT   -0.2816
     13 O13          -4.736500   -0.940000   -3.507700 O.2      1 SUBUNIT   -0.2715
     14 H14          -4.225800    1.729400   -1.969800 H        1 SUBUNIT    0.1560
     15 C15          -6.139900    1.003000   -2.377300 C.2      1 SUBUNIT    0.0291
     16 C16          -6.845900    0.391400   -1.328200 C.2      1 SUBUNIT   -0.0552
     17 C17          -8.243000    1.601200   -3.443800 C.2      1 SUBUNIT   -0.0749
     18 C18          -6.838500    1.607900   -3.435000 C.2      1 SUBUNIT   -0.0444
     19 H19          -6.297000   -0.083800   -0.497200 H        1 SUBUNIT    0.0602
     20 H20          -8.791800    2.076300   -4.274700 H        1 SUBUNIT    0.0583
     21 H21          -6.283900    2.088300   -4.259200 H        1 SUBUNIT    0.0639
     22 C22         -10.301900    0.998000   -2.428900 C.2      1 SUBUNIT   -0.0756
     23 C23         -11.007900    0.386400   -1.379800 C.2      1 SUBUNIT   -0.0517
     24 C24         -10.309300   -0.218400   -0.322100 C.2      1 SUBUNIT    0.0138
     25 C25          -8.904800   -0.211700   -0.313400 C.2      1 SUBUNIT   -0.0624
     26 C26          -8.198900    0.399800   -1.362400 C.3      1 SUBUNIT    0.0480
     27 C27          -8.897400    1.004700   -2.420200 C.3      1 SUBUNIT    0.0452
     28 H28         -10.850700    1.473200   -3.259800 H        1 SUBUNIT    0.0583
     29 H29         -12.111300    0.381200   -1.386800 H        1 SUBUNIT    0.0631
     30 Br30        -11.278600   -1.058100    1.118200 Br       1 SUBUNIT   -0.0512
     31 H31          -8.356100   -0.686900    0.517600 H        1 SUBUNIT    0.0594
@<TRIPOS>BOND
     1    1    2 2
     2    1    6 1
     3    1    7 1
     4    2    3 1
     5    3    4 2
     6    3    8 1
     7    4    5 1
     8    4   11 1
     9    5    6 2
    10    5    9 1
    11    6   10 1
    12   11   12 1
    13   11   13 2
    14   12   14 1
    15   12   15 1
    16   15   16 2
    17   15   18 1
    18   16   26 1
    19   16   19 1
    20   17   27 1
    21   17   18 2
    22   17   20 1
    23   18   21 1
    24   22   23 2
    25   22   27 1
    26   22   28 1
    27   23   24 1
    28   23   29 1
    29   24   25 2
    30   24   30 1
    31   25   26 1
    32   25   31 1
    33   26   27 1
@<SCITEGIC>ATOM_PROPERTY
Formal Charge
SciTegic.value.StringValue
1 0
2 0
3 0
4 0
5 0
6 0
7 0
8 0
9 0
10 0
11 0
12 0
13 0
14 0
15 0
16 0
17 0
18 0
19 0
20 0
21 0
22 0
23 0
24 0
25 0
26 0
27 0
28 0
29 0
30 0
31 0

@<SCITEGIC>ATOM_PROPERTY
pdb_tempFactor
SciTegic.value.DoubleValue
1 0.00
2 0.00
3 0.00
4 0.00
5 0.00
6 0.00
7 0.00
8 0.00
9 0.00
10 0.00
11 0.00
12 0.00
13 0.00
14 0.00
15 0.00
16 0.00
17 0.00
18 0.00
19 0.00
20 0.00
21 0.00
22 0.00
23 0.00
24 0.00
25 0.00
26 0.00
27 0.00
28 0.00
29 0.00
30 0.00
31 0.00

@<SCITEGIC>ATOM_PROPERTY
pdb_occupancy
SciTegic.value.DoubleValue
1 1.00
2 1.00
3 1.00
4 1.00
5 1.00
6 1.00
7 1.00
8 1.00
9 1.00
10 1.00
11 1.00
12 1.00
13 1.00
14 1.00
15 1.00
16 1.00
17 1.00
18 1.00
19 1.00
20 1.00
21 1.00
22 1.00
23 1.00
24 1.00
25 1.00
26 1.00
27 1.00
28 1.00
29 1.00
30 1.00
31 1.00

#	copyright 2023 drugdesign.org
#	Creation time:	2024-01-11T10:58:48Z

@<SCITEGIC>ROOT_PROPERTY
Ligand:MaximumNumberOfAtoms
SciTegic.value.IntegerValue
100

@<SCITEGIC>ROOT_PROPERTY
Ligand:HydrogenAtomsCountTowardsMaximum
SciTegic.value.BooleanValue
FALSE

@<TRIPOS>MOLECULE
2_bond_rotate_all.sd
   31    33     0 0 0
SMALL
USER_CHARGES


@<TRIPOS>ATOM
      1 C1            0.000000    0.000000   -2.977000 C.2      1 SUBUNIT    0.0268
      2 N2           -0.702300    1.216400   -2.977000 N.2      1 SUBUNIT   -0.2639
      3 C3           -2.106800    1.216400   -2.977000 C.2      1 SUBUNIT    0.0393
      4 C4           -2.809000    0.000000   -2.977000 C.2      1 SUBUNIT    0.0557
      5 C5           -2.106800   -1.216400   -2.977000 C.2      1 SUBUNIT   -0.0466
      6 C6           -0.702200   -1.216400   -2.977000 C.2      1 SUBUNIT   -0.0430
      7 H7            1.103400    0.000000   -2.977000 H        1 SUBUNIT    0.0840
      8 H8           -2.658500    2.172000   -2.977000 H        1 SUBUNIT    0.0848
      9 H9           -2.658500   -2.171900   -2.977000 H        1 SUBUNIT    0.0632
     10 H10          -0.150500   -2.172000   -2.977000 H        1 SUBUNIT    0.0639
     11 C11          -4.137600   -0.014300   -2.977000 C.2      1 SUBUNIT    0.2487
     12 N12          -4.826000    1.014700   -2.378600 N.am     1 SUBUNIT   -0.2816
     13 O13          -4.736500   -0.940000   -3.507700 O.2      1 SUBUNIT   -0.2715
     14 H14          -4.225800    1.729400   -1.969800 H        1 SUBUNIT    0.1560
     15 C15          -6.139900    1.003000   -2.377300 C.2      1 SUBUNIT    0.0291
     16 C16          -6.851100    0.996600   -1.166100 C.2      1 SUBUNIT   -0.0552
     17 C17          -8.237700    0.984200   -3.609100 C.2      1 SUBUNIT   -0.0749
     18 C18          -6.833200    0.996800   -3.598800 C.2      1 SUBUNIT   -0.0444
     19 H19          -6.306400    1.001500   -0.206400 H        1 SUBUNIT    0.0602
     20 H20          -8.782300    0.979300   -4.568700 H        1 SUBUNIT    0.0583
     21 H21          -6.274500    1.001800   -4.550300 H        1 SUBUNIT    0.0639
     22 C22         -10.301700    0.965700   -2.437500 C.2      1 SUBUNIT   -0.0756
     23 C23         -11.012900    0.959400   -1.226300 C.2      1 SUBUNIT   -0.0517
     24 C24         -10.319600    0.965600   -0.004800 C.2      1 SUBUNIT    0.0138
     25 C25          -8.915200    0.978100    0.005400 C.2      1 SUBUNIT   -0.0624
     26 C26          -8.203900    0.984500   -1.205700 C.3      1 SUBUNIT    0.0480
     27 C27          -8.897200    0.978300   -2.427200 C.3      1 SUBUNIT    0.0452
     28 H28         -10.846300    0.960900   -3.397100 H        1 SUBUNIT    0.0583
     29 H29         -12.116300    0.949500   -1.234500 H        1 SUBUNIT    0.0631
     30 Br30        -11.296100    0.956800    1.658100 Br       1 SUBUNIT   -0.0512
     31 H31          -8.370500    0.983000    0.965000 H        1 SUBUNIT    0.0594
@<TRIPOS>BOND
     1    1    2 2
     2    1    6 1
     3    1    7 1
     4    2    3 1
     5    3    4 2
     6    3    8 1
     7    4    5 1
     8    4   11 1
     9    5    6 2
    10    5    9 1
    11    6   10 1
    12   11   12 1
    13   11   13 2
    14   12   14 1
    15   12   15 1
    16   15   16 2
    17   15   18 1
    18   16   26 1
    19   16   19 1
    20   17   27 1
    21   17   18 2
    22   17   20 1
    23   18   21 1
    24   22   23 2
    25   22   27 1
    26   22   28 1
    27   23   24 1
    28   23   29 1
    29   24   25 2
    30   24   30 1
    31   25   26 1
    32   25   31 1
    33   26   27 1
@<SCITEGIC>ATOM_PROPERTY
Formal Charge
SciTegic.value.StringValue
1 0
2 0
3 0
4 0
5 0
6 0
7 0
8 0
9 0
10 0
11 0
12 0
13 0
14 0
15 0
16 0
17 0
18 0
19 0
20 0
21 0
22 0
23 0
24 0
25 0
26 0
27 0
28 0
29 0
30 0
31 0

@<SCITEGIC>ATOM_PROPERTY
pdb_tempFactor
SciTegic.value.DoubleValue
1 0.00
2 0.00
3 0.00
4 0.00
5 0.00
6 0.00
7 0.00
8 0.00
9 0.00
10 0.00
11 0.00
12 0.00
13 0.00
14 0.00
15 0.00
16 0.00
17 0.00
18 0.00
19 0.00
20 0.00
21 0.00
22 0.00
23 0.00
24 0.00
25 0.00
26 0.00
27 0.00
28 0.00
29 0.00
30 0.00
31 0.00

@<SCITEGIC>ATOM_PROPERTY
pdb_occupancy
SciTegic.value.DoubleValue
1 1.00
2 1.00
3 1.00
4 1.00
5 1.00
6 1.00
7 1.00
8 1.00
9 1.00
10 1.00
11 1.00
12 1.00
13 1.00
14 1.00
15 1.00
16 1.00
17 1.00
18 1.00
19 1.00
20 1.00
21 1.00
22 1.00
23 1.00
24 1.00
25 1.00
26 1.00
27 1.00
28 1.00
29 1.00
30 1.00
31 1.00

#	copyright 2023 drugdesign.org
#	Creation time:	2024-01-11T10:58:48Z

@<SCITEGIC>ROOT_PROPERTY
Ligand:MaximumNumberOfAtoms
SciTegic.value.IntegerValue
100

@<SCITEGIC>ROOT_PROPERTY
Ligand:HydrogenAtomsCountTowardsMaximum
SciTegic.value.BooleanValue
FALSE

@<TRIPOS>MOLECULE
2_bond_rotate_all.sd
   31    33     0 0 0
SMALL
USER_CHARGES


@<TRIPOS>ATOM
      1 C1            0.000000    0.000000   -2.977000 C.2      1 SUBUNIT    0.0268
      2 N2           -0.702300    1.216400   -2.977000 N.2      1 SUBUNIT   -0.2639
      3 C3           -2.106800    1.216400   -2.977000 C.2      1 SUBUNIT    0.0393
      4 C4           -2.809000    0.000000   -2.977000 C.2      1 SUBUNIT    0.0557
      5 C5           -2.106800   -1.216400   -2.977000 C.2      1 SUBUNIT   -0.0466
      6 C6           -0.702200   -1.216400   -2.977000 C.2      1 SUBUNIT   -0.0430
      7 H7            1.103400    0.000000   -2.977000 H        1 SUBUNIT    0.0840
      8 H8           -2.658500    2.172000   -2.977000 H        1 SUBUNIT    0.0848
      9 H9           -2.658500   -2.171900   -2.977000 H        1 SUBUNIT    0.0632
     10 H10          -0.150500   -2.172000   -2.977000 H        1 SUBUNIT    0.0639
     11 C11          -4.137600   -0.014300   -2.977000 C.2      1 SUBUNIT    0.2487
     12 N12          -4.826000    1.014700   -2.378600 N.am     1 SUBUNIT   -0.2816
     13 O13          -4.736500   -0.940000   -3.507700 O.2      1 SUBUNIT   -0.2715
     14 H14          -4.225800    1.729400   -1.969800 H        1 SUBUNIT    0.1560
     15 C15          -6.139900    1.003000   -2.377300 C.2      1 SUBUNIT    0.0291
     16 C16          -6.856700    1.601800   -1.328200 C.2      1 SUBUNIT   -0.0552
     17 C17          -8.232000    0.367200   -3.443800 C.2      1 SUBUNIT   -0.0749
     18 C18          -6.827500    0.385700   -3.435100 C.2      1 SUBUNIT   -0.0444
     19 H19          -6.316400    2.086800   -0.497200 H        1 SUBUNIT    0.0602
     20 H20          -8.772200   -0.117700   -4.274700 H        1 SUBUNIT    0.0583
     21 H21          -6.264500   -0.084800   -4.259200 H        1 SUBUNIT    0.0639
     22 C22         -10.301400    0.933400   -2.428900 C.2      1 SUBUNIT   -0.0756
     23 C23         -11.018100    1.532300   -1.379800 C.2      1 SUBUNIT   -0.0517
     24 C24         -10.330500    2.149600   -0.322100 C.2      1 SUBUNIT    0.0138
     25 C25          -8.926100    2.168000   -0.313400 C.2      1 SUBUNIT   -0.0624
     26 C26          -8.209300    1.569200   -1.362400 C.3      1 SUBUNIT    0.0480
     27 C27          -8.897000    0.951900   -2.420200 C.3      1 SUBUNIT    0.0452
     28 H28         -10.841500    0.448500   -3.259800 H        1 SUBUNIT    0.0583
     29 H29         -12.121500    1.517700   -1.386800 H        1 SUBUNIT    0.0631
     30 Br30        -11.314700    2.971800    1.118200 Br       1 SUBUNIT   -0.0512
     31 H31          -8.386000    2.652900    0.517600 H        1 SUBUNIT    0.0594
@<TRIPOS>BOND
     1    1    2 2
     2    1    6 1
     3    1    7 1
     4    2    3 1
     5    3    4 2
     6    3    8 1
     7    4    5 1
     8    4   11 1
     9    5    6 2
    10    5    9 1
    11    6   10 1
    12   11   12 1
    13   11   13 2
    14   12   14 1
    15   12   15 1
    16   15   16 2
    17   15   18 1
    18   16   26 1
    19   16   19 1
    20   17   27 1
    21   17   18 2
    22   17   20 1
    23   18   21 1
    24   22   23 2
    25   22   27 1
    26   22   28 1
    27   23   24 1
    28   23   29 1
    29   24   25 2
    30   24   30 1
    31   25   26 1
    32   25   31 1
    33   26   27 1
@<SCITEGIC>ATOM_PROPERTY
Formal Charge
SciTegic.value.StringValue
1 0
2 0
3 0
4 0
5 0
6 0
7 0
8 0
9 0
10 0
11 0
12 0
13 0
14 0
15 0
16 0
17 0
18 0
19 0
20 0
21 0
22 0
23 0
24 0
25 0
26 0
27 0
28 0
29 0
30 0
31 0

@<SCITEGIC>ATOM_PROPERTY
pdb_tempFactor
SciTegic.value.DoubleValue
1 0.00
2 0.00
3 0.00
4 0.00
5 0.00
6 0.00
7 0.00
8 0.00
9 0.00
10 0.00
11 0.00
12 0.00
13 0.00
14 0.00
15 0.00
16 0.00
17 0.00
18 0.00
19 0.00
20 0.00
21 0.00
22 0.00
23 0.00
24 0.00
25 0.00
26 0.00
27 0.00
28 0.00
29 0.00
30 0.00
31 0.00

@<SCITEGIC>ATOM_PROPERTY
pdb_occupancy
SciTegic.value.DoubleValue
1 1.00
2 1.00
3 1.00
4 1.00
5 1.00
6 1.00
7 1.00
8 1.00
9 1.00
10 1.00
11 1.00
12 1.00
13 1.00
14 1.00
15 1.00
16 1.00
17 1.00
18 1.00
19 1.00
20 1.00
21 1.00
22 1.00
23 1.00
24 1.00
25 1.00
26 1.00
27 1.00
28 1.00
29 1.00
30 1.00
31 1.00

#	copyright 2023 drugdesign.org
#	Creation time:	2024-01-11T10:58:48Z

@<SCITEGIC>ROOT_PROPERTY
Ligand:MaximumNumberOfAtoms
SciTegic.value.IntegerValue
100

@<SCITEGIC>ROOT_PROPERTY
Ligand:HydrogenAtomsCountTowardsMaximum
SciTegic.value.BooleanValue
FALSE

@<TRIPOS>MOLECULE
2_bond_rotate_all.sd
   31    33     0 0 0
SMALL
USER_CHARGES


@<TRIPOS>ATOM
      1 C1            0.000000    0.000000   -2.977000 C.2      1 SUBUNIT    0.0268
      2 N2           -0.702300    1.216400   -2.977000 N.2      1 SUBUNIT   -0.2639
      3 C3           -2.106800    1.216400   -2.977000 C.2      1 SUBUNIT    0.0393
      4 C4           -2.809000    0.000000   -2.977000 C.2      1 SUBUNIT    0.0557
      5 C5           -2.106800   -1.216400   -2.977000 C.2      1 SUBUNIT   -0.0466
      6 C6           -0.702200   -1.216400   -2.977000 C.2      1 SUBUNIT   -0.0430
      7 H7            1.103400    0.000000   -2.977000 H        1 SUBUNIT    0.0840
      8 H8           -2.658500    2.172000   -2.977000 H        1 SUBUNIT    0.0848
      9 H9           -2.658500   -2.171900   -2.977000 H        1 SUBUNIT    0.0632
     10 H10          -0.150500   -2.172000   -2.977000 H        1 SUBUNIT    0.0639
     11 C11          -4.137600   -0.014300   -2.977000 C.2      1 SUBUNIT    0.2487
     12 N12          -4.826000    1.014700   -2.378600 N.am     1 SUBUNIT   -0.2816
     13 O13          -4.736500   -0.940000   -3.507700 O.2      1 SUBUNIT   -0.2715
     14 H14          -4.225800    1.729400   -1.969800 H        1 SUBUNIT    0.1560
     15 C15          -6.139900    1.003000   -2.377300 C.2      1 SUBUNIT    0.0291
     16 C16          -6.861100    2.044900   -1.771300 C.2      1 SUBUNIT   -0.0552
     17 C17          -8.227500   -0.084400   -2.992100 C.2      1 SUBUNIT   -0.0749
     18 C18          -6.823100   -0.061700   -2.987700 C.2      1 SUBUNIT   -0.0444
     19 H19          -6.324300    2.881300   -1.291800 H        1 SUBUNIT    0.0602
     20 H20          -8.764200   -0.920800   -3.471600 H        1 SUBUNIT    0.0583
     21 H21          -6.256500   -0.880200   -3.463700 H        1 SUBUNIT    0.0639
     22 C22         -10.301100    0.909800   -2.405200 C.2      1 SUBUNIT   -0.0756
     23 C23         -11.022300    1.951700   -1.799300 C.2      1 SUBUNIT   -0.0517
     24 C24         -10.339200    3.016300   -1.188900 C.2      1 SUBUNIT    0.0138
     25 C25          -8.934900    3.039000   -1.184500 C.2      1 SUBUNIT   -0.0624
     26 C26          -8.213600    1.997200   -1.790400 C.3      1 SUBUNIT    0.0480
     27 C27          -8.896800    0.932500   -2.400800 C.3      1 SUBUNIT    0.0452
     28 H28         -10.837800    0.073400   -2.884800 H        1 SUBUNIT    0.0583
     29 H29         -12.125700    1.933700   -1.802800 H        1 SUBUNIT    0.0631
     30 Br30        -11.329500    4.446800   -0.356900 Br       1 SUBUNIT   -0.0512
     31 H31          -8.398200    3.875400   -0.705000 H        1 SUBUNIT    0.0594
@<TRIPOS>BOND
     1    1    2 2
     2    1    6 1
     3    1    7 1
     4    2    3 1
     5    3    4 2
     6    3    8 1
     7    4    5 1
     8    4   11 1
     9    5    6 2
    10    5    9 1
    11    6   10 1
    12   11   12 1
    13   11   13 2
    14   12   14 1
    15   12   15 1
    16   15   16 2
    17   15   18 1
    18   16   26 1
    19   16   19 1
    20   17   27 1
    21   17   18 2
    22   17   20 1
    23   18   21 1
    24   22   23 2
    25   22   27 1
    26   22   28 1
    27   23   24 1
    28   23   29 1
    29   24   25 2
    30   24   30 1
    31   25   26 1
    32   25   31 1
    33   26   27 1
@<SCITEGIC>ATOM_PROPERTY
Formal Charge
SciTegic.value.StringValue
1 0
2 0
3 0
4 0
5 0
6 0
7 0
8 0
9 0
10 0
11 0
12 0
13 0
14 0
15 0
16 0
17 0
18 0
19 0
20 0
21 0
22 0
23 0
24 0
25 0
26 0
27 0
28 0
29 0
30 0
31 0

@<SCITEGIC>ATOM_PROPERTY
pdb_tempFactor
SciTegic.value.DoubleValue
1 0.00
2 0.00
3 0.00
4 0.00
5 0.00
6 0.00
7 0.00
8 0.00
9 0.00
10 0.00
11 0.00
12 0.00
13 0.00
14 0.00
15 0.00
16 0.00
17 0.00
18 0.00
19 0.00
20 0.00
21 0.00
22 0.00
23 0.00
24 0.00
25 0.00
26 0.00
27 0.00
28 0.00
29 0.00
30 0.00
31 0.00

@<SCITEGIC>ATOM_PROPERTY
pdb_occupancy
SciTegic.value.DoubleValue
1 1.00
2 1.00
3 1.00
4 1.00
5 1.00
6 1.00
7 1.00
8 1.00
9 1.00
10 1.00
11 1.00
12 1.00
13 1.00
14 1.00
15 1.00
16 1.00
17 1.00
18 1.00
19 1.00
20 1.00
21 1.00
22 1.00
23 1.00
24 1.00
25 1.00
26 1.00
27 1.00
28 1.00
29 1.00
30 1.00
31 1.00

#	copyright 2023 drugdesign.org
#	Creation time:	2024-01-11T10:58:48Z

@<SCITEGIC>ROOT_PROPERTY
Ligand:MaximumNumberOfAtoms
SciTegic.value.IntegerValue
100

@<SCITEGIC>ROOT_PROPERTY
Ligand:HydrogenAtomsCountTowardsMaximum
SciTegic.value.BooleanValue
FALSE

@<TRIPOS>MOLECULE
2_bond_rotate_all.sd
   31    33     0 0 0
SMALL
USER_CHARGES


@<TRIPOS>ATOM
      1 C1            0.000000    0.000000   -2.977000 C.2      1 SUBUNIT    0.0268
      2 N2           -0.702300    1.216400   -2.977000 N.2      1 SUBUNIT   -0.2639
      3 C3           -2.106800    1.216400   -2.977000 C.2      1 SUBUNIT    0.0393
      4 C4           -2.809000    0.000000   -2.977000 C.2      1 SUBUNIT    0.0557
      5 C5           -2.106800   -1.216400   -2.977000 C.2      1 SUBUNIT   -0.0466
      6 C6           -0.702200   -1.216400   -2.977000 C.2      1 SUBUNIT   -0.0430
      7 H7            1.103400    0.000000   -2.977000 H        1 SUBUNIT    0.0840
      8 H8           -2.658500    2.172000   -2.977000 H        1 SUBUNIT    0.0848
      9 H9           -2.658500   -2.171900   -2.977000 H        1 SUBUNIT    0.0632
     10 H10          -0.150500   -2.172000   -2.977000 H        1 SUBUNIT    0.0639
     11 C11          -4.137600   -0.014300   -2.977000 C.2      1 SUBUNIT    0.2487
     12 N12          -4.826000    1.014700   -2.378600 N.am     1 SUBUNIT   -0.2816
     13 O13          -4.736500   -0.940000   -3.507700 O.2      1 SUBUNIT   -0.2715
     14 H14          -4.225800    1.729400   -1.969800 H        1 SUBUNIT    0.1560
     15 C15          -6.139900    1.003000   -2.377300 C.2      1 SUBUNIT    0.0291
     16 C16          -6.863200    2.207000   -2.376500 C.2      1 SUBUNIT   -0.0552
     17 C17          -8.225300   -0.249800   -2.375100 C.2      1 SUBUNIT   -0.0749
     18 C18          -6.821000   -0.225400   -2.376600 C.2      1 SUBUNIT   -0.0444
     19 H19          -6.328100    3.172000   -2.377100 H        1 SUBUNIT    0.0602
     20 H20          -8.760400   -1.214700   -2.374500 H        1 SUBUNIT    0.0583
     21 H21          -6.252800   -1.171300   -2.377100 H        1 SUBUNIT    0.0639
     22 C22         -10.301000    0.901200   -2.373000 C.2      1 SUBUNIT   -0.0756
     23 C23         -11.024300    2.105200   -2.372200 C.2      1 SUBUNIT   -0.0517
     24 C24         -10.343300    3.333500   -2.372900 C.2      1 SUBUNIT    0.0138
     25 C25          -8.938900    3.357800   -2.374400 C.2      1 SUBUNIT   -0.0624
     26 C26          -8.215600    2.153900   -2.375100 C.3      1 SUBUNIT    0.0480
     27 C27          -8.896700    0.925500   -2.374400 C.3      1 SUBUNIT    0.0452
     28 H28         -10.836000   -0.063900   -2.372400 H        1 SUBUNIT    0.0583
     29 H29         -12.127600    2.086000   -2.371100 H        1 SUBUNIT    0.0631
     30 Br30        -11.336400    4.986700   -2.371900 Br       1 SUBUNIT   -0.0512
     31 H31          -8.403900    4.322800   -2.375000 H        1 SUBUNIT    0.0594
@<TRIPOS>BOND
     1    1    2 2
     2    1    6 1
     3    1    7 1
     4    2    3 1
     5    3    4 2
     6    3    8 1
     7    4    5 1
     8    4   11 1
     9    5    6 2
    10    5    9 1
    11    6   10 1
    12   11   12 1
    13   11   13 2
    14   12   14 1
    15   12   15 1
    16   15   16 2
    17   15   18 1
    18   16   26 1
    19   16   19 1
    20   17   27 1
    21   17   18 2
    22   17   20 1
    23   18   21 1
    24   22   23 2
    25   22   27 1
    26   22   28 1
    27   23   24 1
    28   23   29 1
    29   24   25 2
    30   24   30 1
    31   25   26 1
    32   25   31 1
    33   26   27 1
@<SCITEGIC>ATOM_PROPERTY
Formal Charge
SciTegic.value.StringValue
1 0
2 0
3 0
4 0
5 0
6 0
7 0
8 0
9 0
10 0
11 0
12 0
13 0
14 0
15 0
16 0
17 0
18 0
19 0
20 0
21 0
22 0
23 0
24 0
25 0
26 0
27 0
28 0
29 0
30 0
31 0

@<SCITEGIC>ATOM_PROPERTY
pdb_tempFactor
SciTegic.value.DoubleValue
1 0.00
2 0.00
3 0.00
4 0.00
5 0.00
6 0.00
7 0.00
8 0.00
9 0.00
10 0.00
11 0.00
12 0.00
13 0.00
14 0.00
15 0.00
16 0.00
17 0.00
18 0.00
19 0.00
20 0.00
21 0.00
22 0.00
23 0.00
24 0.00
25 0.00
26 0.00
27 0.00
28 0.00
29 0.00
30 0.00
31 0.00

@<SCITEGIC>ATOM_PROPERTY
pdb_occupancy
SciTegic.value.DoubleValue
1 1.00
2 1.00
3 1.00
4 1.00
5 1.00
6 1.00
7 1.00
8 1.00
9 1.00
10 1.00
11 1.00
12 1.00
13 1.00
14 1.00
15 1.00
16 1.00
17 1.00
18 1.00
19 1.00
20 1.00
21 1.00
22 1.00
23 1.00
24 1.00
25 1.00
26 1.00
27 1.00
28 1.00
29 1.00
30 1.00
31 1.00

#	copyright 2023 drugdesign.org
#	Creation time:	2024-01-11T10:58:48Z

@<SCITEGIC>ROOT_PROPERTY
Ligand:MaximumNumberOfAtoms
SciTegic.value.IntegerValue
100

@<SCITEGIC>ROOT_PROPERTY
Ligand:HydrogenAtomsCountTowardsMaximum
SciTegic.value.BooleanValue
FALSE

@<TRIPOS>MOLECULE
2_bond_rotate_all.sd
   31    33     0 0 0
SMALL
USER_CHARGES


@<TRIPOS>ATOM
      1 C1            0.000000    0.000000   -2.977000 C.2      1 SUBUNIT    0.0268
      2 N2           -0.702300    1.216400   -2.977000 N.2      1 SUBUNIT   -0.2639
      3 C3           -2.106800    1.216400   -2.977000 C.2      1 SUBUNIT    0.0393
      4 C4           -2.809000    0.000000   -2.977000 C.2      1 SUBUNIT    0.0557
      5 C5           -2.106800   -1.216400   -2.977000 C.2      1 SUBUNIT   -0.0466
      6 C6           -0.702200   -1.216400   -2.977000 C.2      1 SUBUNIT   -0.0430
      7 H7            1.103400    0.000000   -2.977000 H        1 SUBUNIT    0.0840
      8 H8           -2.658500    2.172000   -2.977000 H        1 SUBUNIT    0.0848
      9 H9           -2.658500   -2.171900   -2.977000 H        1 SUBUNIT    0.0632
     10 H10          -0.150500   -2.172000   -2.977000 H        1 SUBUNIT    0.0639
     11 C11          -4.137600   -0.014300   -2.977000 C.2      1 SUBUNIT    0.2487
     12 N12          -4.826000    1.014700   -2.378600 N.am     1 SUBUNIT   -0.2816
     13 O13          -4.736500   -0.940000   -3.507700 O.2      1 SUBUNIT   -0.2715
     14 H14          -4.225800    1.729400   -1.969800 H        1 SUBUNIT    0.1560
     15 C15          -6.139900    1.003000   -2.377300 C.2      1 SUBUNIT    0.0291
     16 C16          -6.862400    2.044800   -2.981800 C.2      1 SUBUNIT   -0.0552
     17 C17          -8.226200   -0.084400   -1.758100 C.2      1 SUBUNIT   -0.0749
     18 C18          -6.821800   -0.061700   -1.765400 C.2      1 SUBUNIT   -0.0444
     19 H19          -6.326600    2.881200   -3.462400 H        1 SUBUNIT    0.0602
     20 H20          -8.761900   -0.920700   -1.277500 H        1 SUBUNIT    0.0583
     21 H21          -6.254200   -0.880200   -1.290500 H        1 SUBUNIT    0.0639
     22 C22         -10.301000    0.909800   -2.340700 C.2      1 SUBUNIT   -0.0756
     23 C23         -11.023500    1.951700   -2.945200 C.2      1 SUBUNIT   -0.0517
     24 C24         -10.341600    3.016300   -3.557000 C.2      1 SUBUNIT    0.0138
     25 C25          -8.937300    3.039000   -3.564300 C.2      1 SUBUNIT   -0.0624
     26 C26          -8.214800    1.997200   -2.959900 C.3      1 SUBUNIT    0.0480
     27 C27          -8.896700    0.932500   -2.348000 C.3      1 SUBUNIT    0.0452
     28 H28         -10.836700    0.073400   -1.860000 H        1 SUBUNIT    0.0583
     29 H29         -12.126800    1.933700   -2.939300 H        1 SUBUNIT    0.0631
     30 Br30        -11.333600    4.446700   -4.386900 Br       1 SUBUNIT   -0.0512
     31 H31          -8.401600    3.875400   -4.045000 H        1 SUBUNIT    0.0594
@<TRIPOS>BOND
     1    1    2 2
     2    1    6 1
     3    1    7 1
     4    2    3 1
     5    3    4 2
     6    3    8 1
     7    4    5 1
     8    4   11 1
     9    5    6 2
    10    5    9 1
    11    6   10 1
    12   11   12 1
    13   11   13 2
    14   12   14 1
    15   12   15 1
    16   15   16 2
    17   15   18 1
    18   16   26 1
    19   16   19 1
    20   17   27 1
    21   17   18 2
    22   17   20 1
    23   18   21 1
    24   22   23 2
    25   22   27 1
    26   22   28 1
    27   23   24 1
    28   23   29 1
    29   24   25 2
    30   24   30 1
    31   25   26 1
    32   25   31 1
    33   26   27 1
@<SCITEGIC>ATOM_PROPERTY
Formal Charge
SciTegic.value.StringValue
1 0
2 0
3 0
4 0
5 0
6 0
7 0
8 0
9 0
10 0
11 0
12 0
13 0
14 0
15 0
16 0
17 0
18 0
19 0
20 0
21 0
22 0
23 0
24 0
25 0
26 0
27 0
28 0
29 0
30 0
31 0

@<SCITEGIC>ATOM_PROPERTY
pdb_tempFactor
SciTegic.value.DoubleValue
1 0.00
2 0.00
3 0.00
4 0.00
5 0.00
6 0.00
7 0.00
8 0.00
9 0.00
10 0.00
11 0.00
12 0.00
13 0.00
14 0.00
15 0.00
16 0.00
17 0.00
18 0.00
19 0.00
20 0.00
21 0.00
22 0.00
23 0.00
24 0.00
25 0.00
26 0.00
27 0.00
28 0.00
29 0.00
30 0.00
31 0.00

@<SCITEGIC>ATOM_PROPERTY
pdb_occupancy
SciTegic.value.DoubleValue
1 1.00
2 1.00
3 1.00
4 1.00
5 1.00
6 1.00
7 1.00
8 1.00
9 1.00
10 1.00
11 1.00
12 1.00
13 1.00
14 1.00
15 1.00
16 1.00
17 1.00
18 1.00
19 1.00
20 1.00
21 1.00
22 1.00
23 1.00
24 1.00
25 1.00
26 1.00
27 1.00
28 1.00
29 1.00
30 1.00
31 1.00

#	copyright 2023 drugdesign.org
#	Creation time:	2024-01-11T10:58:48Z

@<SCITEGIC>ROOT_PROPERTY
Ligand:MaximumNumberOfAtoms
SciTegic.value.IntegerValue
100

@<SCITEGIC>ROOT_PROPERTY
Ligand:HydrogenAtomsCountTowardsMaximum
SciTegic.value.BooleanValue
FALSE

@<TRIPOS>MOLECULE
2_bond_rotate_all.sd
   31    33     0 0 0
SMALL
USER_CHARGES


@<TRIPOS>ATOM
      1 C1            0.000000    0.000000   -2.977000 C.2      1 SUBUNIT    0.0268
      2 N2           -0.702300    1.216400   -2.977000 N.2      1 SUBUNIT   -0.2639
      3 C3           -2.106800    1.216400   -2.977000 C.2      1 SUBUNIT    0.0393
      4 C4           -2.809000    0.000000   -2.977000 C.2      1 SUBUNIT    0.0557
      5 C5           -2.106800   -1.216400   -2.977000 C.2      1 SUBUNIT   -0.0466
      6 C6           -0.702200   -1.216400   -2.977000 C.2      1 SUBUNIT   -0.0430
      7 H7            1.103400    0.000000   -2.977000 H        1 SUBUNIT    0.0840
      8 H8           -2.658500    2.172000   -2.977000 H        1 SUBUNIT    0.0848
      9 H9           -2.658500   -2.171900   -2.977000 H        1 SUBUNIT    0.0632
     10 H10          -0.150500   -2.172000   -2.977000 H        1 SUBUNIT    0.0639
     11 C11          -4.137600   -0.014300   -2.977000 C.2      1 SUBUNIT    0.2487
     12 N12          -4.826000    1.014700   -2.378600 N.am     1 SUBUNIT   -0.2816
     13 O13          -4.736500   -0.940000   -3.507700 O.2      1 SUBUNIT   -0.2715
     14 H14          -4.225800    1.729400   -1.969800 H        1 SUBUNIT    0.1560
     15 C15          -6.139900    1.003000   -2.377300 C.2      1 SUBUNIT    0.0291
     16 C16          -6.858900    1.601800   -3.424800 C.2      1 SUBUNIT   -0.0552
     17 C17          -8.229800    0.367200   -1.306400 C.2      1 SUBUNIT   -0.0749
     18 C18          -6.825300    0.385700   -1.318100 C.2      1 SUBUNIT   -0.0444
     19 H19          -6.320300    2.086700   -4.256900 H        1 SUBUNIT    0.0602
     20 H20          -8.768200   -0.117700   -0.474400 H        1 SUBUNIT    0.0583
     21 H21          -6.260500   -0.084700   -0.495100 H        1 SUBUNIT    0.0639
     22 C22         -10.301200    0.933400   -2.317000 C.2      1 SUBUNIT   -0.0756
     23 C23         -11.020200    1.532300   -3.364600 C.2      1 SUBUNIT   -0.0517
     24 C24         -10.334800    2.149500   -4.423800 C.2      1 SUBUNIT    0.0138
     25 C25          -8.930400    2.168000   -4.435400 C.2      1 SUBUNIT   -0.0624
     26 C26          -8.211400    1.569200   -3.387900 C.3      1 SUBUNIT    0.0480
     27 C27          -8.896900    0.951900   -2.328700 C.3      1 SUBUNIT    0.0452
     28 H28         -10.839700    0.448500   -1.484900 H        1 SUBUNIT    0.0583
     29 H29         -12.123500    1.517700   -3.355300 H        1 SUBUNIT    0.0631
     30 Br30        -11.322000    2.971700   -5.862000 Br       1 SUBUNIT   -0.0512
     31 H31          -8.392000    2.652900   -5.267500 H        1 SUBUNIT    0.0594
@<TRIPOS>BOND
     1    1    2 2
     2    1    6 1
     3    1    7 1
     4    2    3 1
     5    3    4 2
     6    3    8 1
     7    4    5 1
     8    4   11 1
     9    5    6 2
    10    5    9 1
    11    6   10 1
    12   11   12 1
    13   11   13 2
    14   12   14 1
    15   12   15 1
    16   15   16 2
    17   15   18 1
    18   16   26 1
    19   16   19 1
    20   17   27 1
    21   17   18 2
    22   17   20 1
    23   18   21 1
    24   22   23 2
    25   22   27 1
    26   22   28 1
    27   23   24 1
    28   23   29 1
    29   24   25 2
    30   24   30 1
    31   25   26 1
    32   25   31 1
    33   26   27 1
@<SCITEGIC>ATOM_PROPERTY
Formal Charge
SciTegic.value.StringValue
1 0
2 0
3 0
4 0
5 0
6 0
7 0
8 0
9 0
10 0
11 0
12 0
13 0
14 0
15 0
16 0
17 0
18 0
19 0
20 0
21 0
22 0
23 0
24 0
25 0
26 0
27 0
28 0
29 0
30 0
31 0

@<SCITEGIC>ATOM_PROPERTY
pdb_tempFactor
SciTegic.value.DoubleValue
1 0.00
2 0.00
3 0.00
4 0.00
5 0.00
6 0.00
7 0.00
8 0.00
9 0.00
10 0.00
11 0.00
12 0.00
13 0.00
14 0.00
15 0.00
16 0.00
17 0.00
18 0.00
19 0.00
20 0.00
21 0.00
22 0.00
23 0.00
24 0.00
25 0.00
26 0.00
27 0.00
28 0.00
29 0.00
30 0.00
31 0.00

@<SCITEGIC>ATOM_PROPERTY
pdb_occupancy
SciTegic.value.DoubleValue
1 1.00
2 1.00
3 1.00
4 1.00
5 1.00
6 1.00
7 1.00
8 1.00
9 1.00
10 1.00
11 1.00
12 1.00
13 1.00
14 1.00
15 1.00
16 1.00
17 1.00
18 1.00
19 1.00
20 1.00
21 1.00
22 1.00
23 1.00
24 1.00
25 1.00
26 1.00
27 1.00
28 1.00
29 1.00
30 1.00
31 1.00

#	copyright 2023 drugdesign.org
#	Creation time:	2024-01-11T10:58:48Z

@<SCITEGIC>ROOT_PROPERTY
Ligand:MaximumNumberOfAtoms
SciTegic.value.IntegerValue
100

@<SCITEGIC>ROOT_PROPERTY
Ligand:HydrogenAtomsCountTowardsMaximum
SciTegic.value.BooleanValue
FALSE

@<TRIPOS>MOLECULE
2_bond_rotate_all.sd
   31    33     0 0 0
SMALL
USER_CHARGES


@<TRIPOS>ATOM
      1 C1            0.000000    0.000000   -2.977000 C.2      1 SUBUNIT    0.0268
      2 N2           -0.702300    1.216400   -2.977000 N.2      1 SUBUNIT   -0.2639
      3 C3           -2.106800    1.216400   -2.977000 C.2      1 SUBUNIT    0.0393
      4 C4           -2.809000    0.000000   -2.977000 C.2      1 SUBUNIT    0.0557
      5 C5           -2.106800   -1.216400   -2.977000 C.2      1 SUBUNIT   -0.0466
      6 C6           -0.702200   -1.216400   -2.977000 C.2      1 SUBUNIT   -0.0430
      7 H7            1.103400    0.000000   -2.977000 H        1 SUBUNIT    0.0840
      8 H8           -2.658500    2.172000   -2.977000 H        1 SUBUNIT    0.0848
      9 H9           -2.658500   -2.171900   -2.977000 H        1 SUBUNIT    0.0632
     10 H10          -0.150500   -2.172000   -2.977000 H        1 SUBUNIT    0.0639
     11 C11          -4.137600   -0.014300   -2.977000 C.2      1 SUBUNIT    0.2487
     12 N12          -4.826000    1.014700   -2.378600 N.am     1 SUBUNIT   -0.2816
     13 O13          -4.736500   -0.940000   -3.507700 O.2      1 SUBUNIT   -0.2715
     14 H14          -4.225800    1.729400   -1.969800 H        1 SUBUNIT    0.1560
     15 C15          -6.139900    1.003000   -2.377300 C.2      1 SUBUNIT    0.0291
     16 C16          -6.853600    0.996600   -3.587000 C.2      1 SUBUNIT   -0.0552
     17 C17          -8.235100    0.984200   -1.141100 C.2      1 SUBUNIT   -0.0749
     18 C18          -6.830600    0.996800   -1.154300 C.2      1 SUBUNIT   -0.0444
     19 H19          -6.310900    1.001400   -4.547800 H        1 SUBUNIT    0.0602
     20 H20          -8.777800    0.979400   -0.180400 H        1 SUBUNIT    0.0583
     21 H21          -6.270000    1.001800   -0.203900 H        1 SUBUNIT    0.0639
     22 C22         -10.301500    0.965700   -2.308400 C.2      1 SUBUNIT   -0.0756
     23 C23         -11.015200    0.959300   -3.518100 C.2      1 SUBUNIT   -0.0517
     24 C24         -10.324500    0.965500   -4.741000 C.2      1 SUBUNIT    0.0138
     25 C25          -8.920100    0.978100   -4.754200 C.2      1 SUBUNIT   -0.0624
     26 C26          -8.206400    0.984500   -3.544600 C.3      1 SUBUNIT    0.0480
     27 C27          -8.897100    0.978300   -2.321600 C.3      1 SUBUNIT    0.0452
     28 H28         -10.844100    0.960900   -1.347600 H        1 SUBUNIT    0.0583
     29 H29         -12.118600    0.949500   -3.507600 H        1 SUBUNIT    0.0631
     30 Br30        -11.304500    0.956700   -6.402000 Br       1 SUBUNIT   -0.0512
     31 H31          -8.377500    0.982900   -5.714900 H        1 SUBUNIT    0.0594
@<TRIPOS>BOND
     1    1    2 2
     2    1    6 1
     3    1    7 1
     4    2    3 1
     5    3    4 2
     6    3    8 1
     7    4    5 1
     8    4   11 1
     9    5    6 2
    10    5    9 1
    11    6   10 1
    12   11   12 1
    13   11   13 2
    14   12   14 1
    15   12   15 1
    16   15   16 2
    17   15   18 1
    18   16   26 1
    19   16   19 1
    20   17   27 1
    21   17   18 2
    22   17   20 1
    23   18   21 1
    24   22   23 2
    25   22   27 1
    26   22   28 1
    27   23   24 1
    28   23   29 1
    29   24   25 2
    30   24   30 1
    31   25   26 1
    32   25   31 1
    33   26   27 1
@<SCITEGIC>ATOM_PROPERTY
Formal Charge
SciTegic.value.StringValue
1 0
2 0
3 0
4 0
5 0
6 0
7 0
8 0
9 0
10 0
11 0
12 0
13 0
14 0
15 0
16 0
17 0
18 0
19 0
20 0
21 0
22 0
23 0
24 0
25 0
26 0
27 0
28 0
29 0
30 0
31 0

@<SCITEGIC>ATOM_PROPERTY
pdb_tempFactor
SciTegic.value.DoubleValue
1 0.00
2 0.00
3 0.00
4 0.00
5 0.00
6 0.00
7 0.00
8 0.00
9 0.00
10 0.00
11 0.00
12 0.00
13 0.00
14 0.00
15 0.00
16 0.00
17 0.00
18 0.00
19 0.00
20 0.00
21 0.00
22 0.00
23 0.00
24 0.00
25 0.00
26 0.00
27 0.00
28 0.00
29 0.00
30 0.00
31 0.00

@<SCITEGIC>ATOM_PROPERTY
pdb_occupancy
SciTegic.value.DoubleValue
1 1.00
2 1.00
3 1.00
4 1.00
5 1.00
6 1.00
7 1.00
8 1.00
9 1.00
10 1.00
11 1.00
12 1.00
13 1.00
14 1.00
15 1.00
16 1.00
17 1.00
18 1.00
19 1.00
20 1.00
21 1.00
22 1.00
23 1.00
24 1.00
25 1.00
26 1.00
27 1.00
28 1.00
29 1.00
30 1.00
31 1.00

#	copyright 2023 drugdesign.org
#	Creation time:	2024-01-11T10:58:48Z

@<SCITEGIC>ROOT_PROPERTY
Ligand:MaximumNumberOfAtoms
SciTegic.value.IntegerValue
100

@<SCITEGIC>ROOT_PROPERTY
Ligand:HydrogenAtomsCountTowardsMaximum
SciTegic.value.BooleanValue
FALSE

@<TRIPOS>MOLECULE
2_bond_rotate_all.sd
   31    33     0 0 0
SMALL
USER_CHARGES


@<TRIPOS>ATOM
      1 C1            0.000000    0.000000   -2.977000 C.2      1 SUBUNIT    0.0268
      2 N2           -0.702300    1.216400   -2.977000 N.2      1 SUBUNIT   -0.2639
      3 C3           -2.106800    1.216400   -2.977000 C.2      1 SUBUNIT    0.0393
      4 C4           -2.809000    0.000000   -2.977000 C.2      1 SUBUNIT    0.0557
      5 C5           -2.106800   -1.216400   -2.977000 C.2      1 SUBUNIT   -0.0466
      6 C6           -0.702200   -1.216400   -2.977000 C.2      1 SUBUNIT   -0.0430
      7 H7            1.103400    0.000000   -2.977000 H        1 SUBUNIT    0.0840
      8 H8           -2.658500    2.172000   -2.977000 H        1 SUBUNIT    0.0848
      9 H9           -2.658500   -2.171900   -2.977000 H        1 SUBUNIT    0.0632
     10 H10          -0.150500   -2.172000   -2.977000 H        1 SUBUNIT    0.0639
     11 C11          -4.137600   -0.014300   -2.977000 C.2      1 SUBUNIT    0.2487
     12 N12          -4.826000    1.014700   -2.378600 N.am     1 SUBUNIT   -0.2816
     13 O13          -4.736500   -0.940000   -3.507700 O.2      1 SUBUNIT   -0.2715
     14 H14          -4.225800    1.729400   -1.969800 H        1 SUBUNIT    0.1560
     15 C15          -6.139900    1.003000   -2.377300 C.2      1 SUBUNIT    0.0291
     16 C16          -6.848100    0.391400   -3.424800 C.2      1 SUBUNIT   -0.0552
     17 C17          -8.240800    1.601200   -1.306400 C.2      1 SUBUNIT   -0.0749
     18 C18          -6.836300    1.607900   -1.318100 C.2      1 SUBUNIT   -0.0444
     19 H19          -6.300900   -0.083800   -4.256900 H        1 SUBUNIT    0.0602
     20 H20          -8.787900    2.076400   -0.474400 H        1 SUBUNIT    0.0583
     21 H21          -6.280000    2.088400   -0.495100 H        1 SUBUNIT    0.0639
     22 C22         -10.301800    0.998000   -2.317000 C.2      1 SUBUNIT   -0.0756
     23 C23         -11.009900    0.386400   -3.364600 C.2      1 SUBUNIT   -0.0517
     24 C24         -10.313600   -0.218500   -4.423700 C.2      1 SUBUNIT    0.0138
     25 C25          -8.909100   -0.211800   -4.435400 C.2      1 SUBUNIT   -0.0624
     26 C26          -8.201000    0.399800   -3.387900 C.3      1 SUBUNIT    0.0480
     27 C27          -8.897300    1.004700   -2.328600 C.3      1 SUBUNIT    0.0452
     28 H28         -10.848900    1.473200   -1.484900 H        1 SUBUNIT    0.0583
     29 H29         -12.113400    0.381200   -3.355300 H        1 SUBUNIT    0.0631
     30 Br30        -11.285900   -1.058200   -5.862000 Br       1 SUBUNIT   -0.0512
     31 H31          -8.362100   -0.687000   -5.267500 H        1 SUBUNIT    0.0594
@<TRIPOS>BOND
     1    1    2 2
     2    1    6 1
     3    1    7 1
     4    2    3 1
     5    3    4 2
     6    3    8 1
     7    4    5 1
     8    4   11 1
     9    5    6 2
    10    5    9 1
    11    6   10 1
    12   11   12 1
    13   11   13 2
    14   12   14 1
    15   12   15 1
    16   15   16 2
    17   15   18 1
    18   16   26 1
    19   16   19 1
    20   17   27 1
    21   17   18 2
    22   17   20 1
    23   18   21 1
    24   22   23 2
    25   22   27 1
    26   22   28 1
    27   23   24 1
    28   23   29 1
    29   24   25 2
    30   24   30 1
    31   25   26 1
    32   25   31 1
    33   26   27 1
@<SCITEGIC>ATOM_PROPERTY
Formal Charge
SciTegic.value.StringValue
1 0
2 0
3 0
4 0
5 0
6 0
7 0
8 0
9 0
10 0
11 0
12 0
13 0
14 0
15 0
16 0
17 0
18 0
19 0
20 0
21 0
22 0
23 0
24 0
25 0
26 0
27 0
28 0
29 0
30 0
31 0

@<SCITEGIC>ATOM_PROPERTY
pdb_tempFactor
SciTegic.value.DoubleValue
1 0.00
2 0.00
3 0.00
4 0.00
5 0.00
6 0.00
7 0.00
8 0.00
9 0.00
10 0.00
11 0.00
12 0.00
13 0.00
14 0.00
15 0.00
16 0.00
17 0.00
18 0.00
19 0.00
20 0.00
21 0.00
22 0.00
23 0.00
24 0.00
25 0.00
26 0.00
27 0.00
28 0.00
29 0.00
30 0.00
31 0.00

@<SCITEGIC>ATOM_PROPERTY
pdb_occupancy
SciTegic.value.DoubleValue
1 1.00
2 1.00
3 1.00
4 1.00
5 1.00
6 1.00
7 1.00
8 1.00
9 1.00
10 1.00
11 1.00
12 1.00
13 1.00
14 1.00
15 1.00
16 1.00
17 1.00
18 1.00
19 1.00
20 1.00
21 1.00
22 1.00
23 1.00
24 1.00
25 1.00
26 1.00
27 1.00
28 1.00
29 1.00
30 1.00
31 1.00

