#	copyright 2023 drugdesign.org
#	Creation time:	2024-01-11T10:58:44Z

@<TRIPOS>MOLECULE
propanol_360.sd
   12    11     0 0 0
SMALL
USER_CHARGES


@<TRIPOS>ATOM
      1 H1            0.000000    0.000000    0.000000 H        1 SUBUNIT    0.2100
      2 C2            2.945200    1.441100   -0.000700 C.3      1 SUBUNIT   -0.0327
      3 C3            1.414900    1.350200    0.000000 C.3      1 SUBUNIT    0.0429
      4 O4            0.950000    0.000000    0.000000 O.3      1 SUBUNIT   -0.3962
      5 C5            3.612400    0.060900   -0.001200 C.3      1 SUBUNIT   -0.0632
      6 H6            3.310200   -0.508500    0.899900 H        1 SUBUNIT    0.0231
      7 H7            3.309300   -0.508200   -0.902300 H        1 SUBUNIT    0.0231
      8 H8            4.714900    0.171000   -0.001700 H        1 SUBUNIT    0.0231
      9 H9            3.282200    2.016400   -0.885600 H        1 SUBUNIT    0.0287
     10 H10           3.283100    2.016100    0.884100 H        1 SUBUNIT    0.0287
     11 H11           1.011300    1.881500   -0.884600 H        1 SUBUNIT    0.0563
     12 H12           1.012200    1.881200    0.885100 H        1 SUBUNIT    0.0563
@<TRIPOS>BOND
     1    1    4 1
     2    2    5 1
     3    2    3 1
     4    2    9 1
     5    2   10 1
     6    3    4 1
     7    3   11 1
     8    3   12 1
     9    5    6 1
    10    5    7 1
    11    5    8 1
@<SCITEGIC>ATOM_PROPERTY
Formal Charge
SciTegic.value.StringValue
1 0
2 0
3 0
4 0
5 0
6 0
7 0
8 0
9 0
10 0
11 0
12 0

@<SCITEGIC>ATOM_PROPERTY
pdb_tempFactor
SciTegic.value.DoubleValue
1 0.00
2 0.00
3 0.00
4 0.00
5 0.00
6 0.00
7 0.00
8 0.00
9 0.00
10 0.00
11 0.00
12 0.00

@<SCITEGIC>ATOM_PROPERTY
pdb_occupancy
SciTegic.value.DoubleValue
1 1.00
2 1.00
3 1.00
4 1.00
5 1.00
6 1.00
7 1.00
8 1.00
9 1.00
10 1.00
11 1.00
12 1.00

#	copyright 2023 drugdesign.org
#	Creation time:	2024-01-11T10:58:44Z

@<TRIPOS>MOLECULE
propanol_360.sd
   12    11     0 0 0
SMALL
USER_CHARGES


@<TRIPOS>ATOM
      1 H1            0.000000    0.000000    0.000000 H        1 SUBUNIT    0.2100
      2 C2            2.945200    1.441100   -0.000700 C.3      1 SUBUNIT   -0.0327
      3 C3            1.414900    1.350200    0.000000 C.3      1 SUBUNIT    0.0429
      4 O4            0.950000    0.000000    0.000000 O.3      1 SUBUNIT   -0.3962
      5 C5            3.612400    0.061100   -0.026000 C.3      1 SUBUNIT   -0.0632
      6 H6            3.311100   -0.523900    0.865500 H        1 SUBUNIT    0.0231
      7 H7            3.308400   -0.492200   -0.936500 H        1 SUBUNIT    0.0231
      8 H8            4.714900    0.171200   -0.025700 H        1 SUBUNIT    0.0231
      9 H9            3.281300    2.031700   -0.875800 H        1 SUBUNIT    0.0287
     10 H10           3.284000    2.000600    0.893600 H        1 SUBUNIT    0.0287
     11 H11           1.011300    1.881500   -0.884600 H        1 SUBUNIT    0.0563
     12 H12           1.012200    1.881200    0.885100 H        1 SUBUNIT    0.0563
@<TRIPOS>BOND
     1    1    4 1
     2    2    5 1
     3    2    3 1
     4    2    9 1
     5    2   10 1
     6    3    4 1
     7    3   11 1
     8    3   12 1
     9    5    6 1
    10    5    7 1
    11    5    8 1
@<SCITEGIC>ATOM_PROPERTY
Formal Charge
SciTegic.value.StringValue
1 0
2 0
3 0
4 0
5 0
6 0
7 0
8 0
9 0
10 0
11 0
12 0

@<SCITEGIC>ATOM_PROPERTY
pdb_tempFactor
SciTegic.value.DoubleValue
1 0.00
2 0.00
3 0.00
4 0.00
5 0.00
6 0.00
7 0.00
8 0.00
9 0.00
10 0.00
11 0.00
12 0.00

@<SCITEGIC>ATOM_PROPERTY
pdb_occupancy
SciTegic.value.DoubleValue
1 1.00
2 1.00
3 1.00
4 1.00
5 1.00
6 1.00
7 1.00
8 1.00
9 1.00
10 1.00
11 1.00
12 1.00

#	copyright 2023 drugdesign.org
#	Creation time:	2024-01-11T10:58:44Z

@<TRIPOS>MOLECULE
propanol_360.sd
   12    11     0 0 0
SMALL
USER_CHARGES


@<TRIPOS>ATOM
      1 H1            0.000000    0.000000    0.000000 H        1 SUBUNIT    0.2100
      2 C2            2.945200    1.441100   -0.000700 C.3      1 SUBUNIT   -0.0327
      3 C3            1.414900    1.350200    0.000000 C.3      1 SUBUNIT    0.0429
      4 O4            0.950000    0.000000    0.000000 O.3      1 SUBUNIT   -0.3962
      5 C5            3.612300    0.061800   -0.050700 C.3      1 SUBUNIT   -0.0632
      6 H6            3.311900   -0.538700    0.830700 H        1 SUBUNIT    0.0231
      7 H7            3.307400   -0.475600   -0.970400 H        1 SUBUNIT    0.0231
      8 H8            4.714900    0.171800   -0.049600 H        1 SUBUNIT    0.0231
      9 H9            3.280400    2.046900   -0.865700 H        1 SUBUNIT    0.0287
     10 H10           3.284900    1.985000    0.902900 H        1 SUBUNIT    0.0287
     11 H11           1.011300    1.881500   -0.884600 H        1 SUBUNIT    0.0563
     12 H12           1.012200    1.881200    0.885100 H        1 SUBUNIT    0.0563
@<TRIPOS>BOND
     1    1    4 1
     2    2    5 1
     3    2    3 1
     4    2    9 1
     5    2   10 1
     6    3    4 1
     7    3   11 1
     8    3   12 1
     9    5    6 1
    10    5    7 1
    11    5    8 1
@<SCITEGIC>ATOM_PROPERTY
Formal Charge
SciTegic.value.StringValue
1 0
2 0
3 0
4 0
5 0
6 0
7 0
8 0
9 0
10 0
11 0
12 0

@<SCITEGIC>ATOM_PROPERTY
pdb_tempFactor
SciTegic.value.DoubleValue
1 0.00
2 0.00
3 0.00
4 0.00
5 0.00
6 0.00
7 0.00
8 0.00
9 0.00
10 0.00
11 0.00
12 0.00

@<SCITEGIC>ATOM_PROPERTY
pdb_occupancy
SciTegic.value.DoubleValue
1 1.00
2 1.00
3 1.00
4 1.00
5 1.00
6 1.00
7 1.00
8 1.00
9 1.00
10 1.00
11 1.00
12 1.00

#	copyright 2023 drugdesign.org
#	Creation time:	2024-01-11T10:58:44Z

@<TRIPOS>MOLECULE
propanol_360.sd
   12    11     0 0 0
SMALL
USER_CHARGES


@<TRIPOS>ATOM
      1 H1            0.000000    0.000000    0.000000 H        1 SUBUNIT    0.2100
      2 C2            2.945200    1.441100   -0.000700 C.3      1 SUBUNIT   -0.0327
      3 C3            1.414900    1.350200    0.000000 C.3      1 SUBUNIT    0.0429
      4 O4            0.950000    0.000000    0.000000 O.3      1 SUBUNIT   -0.3962
      5 C5            3.612300    0.062900   -0.075400 C.3      1 SUBUNIT   -0.0632
      6 H6            3.312800   -0.552800    0.795700 H        1 SUBUNIT    0.0231
      7 H7            3.306300   -0.458400   -1.004000 H        1 SUBUNIT    0.0231
      8 H8            4.714800    0.172900   -0.073600 H        1 SUBUNIT    0.0231
      9 H9            3.279600    2.061900   -0.855400 H        1 SUBUNIT    0.0287
     10 H10           3.285900    1.969100    0.911900 H        1 SUBUNIT    0.0287
     11 H11           1.011300    1.881500   -0.884600 H        1 SUBUNIT    0.0563
     12 H12           1.012200    1.881200    0.885100 H        1 SUBUNIT    0.0563
@<TRIPOS>BOND
     1    1    4 1
     2    2    5 1
     3    2    3 1
     4    2    9 1
     5    2   10 1
     6    3    4 1
     7    3   11 1
     8    3   12 1
     9    5    6 1
    10    5    7 1
    11    5    8 1
@<SCITEGIC>ATOM_PROPERTY
Formal Charge
SciTegic.value.StringValue
1 0
2 0
3 0
4 0
5 0
6 0
7 0
8 0
9 0
10 0
11 0
12 0

@<SCITEGIC>ATOM_PROPERTY
pdb_tempFactor
SciTegic.value.DoubleValue
1 0.00
2 0.00
3 0.00
4 0.00
5 0.00
6 0.00
7 0.00
8 0.00
9 0.00
10 0.00
11 0.00
12 0.00

@<SCITEGIC>ATOM_PROPERTY
pdb_occupancy
SciTegic.value.DoubleValue
1 1.00
2 1.00
3 1.00
4 1.00
5 1.00
6 1.00
7 1.00
8 1.00
9 1.00
10 1.00
11 1.00
12 1.00

#	copyright 2023 drugdesign.org
#	Creation time:	2024-01-11T10:58:44Z

@<TRIPOS>MOLECULE
propanol_360.sd
   12    11     0 0 0
SMALL
USER_CHARGES


@<TRIPOS>ATOM
      1 H1            0.000000    0.000000    0.000000 H        1 SUBUNIT    0.2100
      2 C2            2.945200    1.441100   -0.000700 C.3      1 SUBUNIT   -0.0327
      3 C3            1.414900    1.350200    0.000000 C.3      1 SUBUNIT    0.0429
      4 O4            0.950000    0.000000    0.000000 O.3      1 SUBUNIT   -0.3962
      5 C5            3.612200    0.064400   -0.100100 C.3      1 SUBUNIT   -0.0632
      6 H6            3.313500   -0.566400    0.760500 H        1 SUBUNIT    0.0231
      7 H7            3.305300   -0.440600   -1.037300 H        1 SUBUNIT    0.0231
      8 H8            4.714700    0.174300   -0.097500 H        1 SUBUNIT    0.0231
      9 H9            3.278700    2.076700   -0.844800 H        1 SUBUNIT    0.0287
     10 H10           3.286800    1.953200    0.920600 H        1 SUBUNIT    0.0287
     11 H11           1.011300    1.881500   -0.884600 H        1 SUBUNIT    0.0563
     12 H12           1.012200    1.881200    0.885100 H        1 SUBUNIT    0.0563
@<TRIPOS>BOND
     1    1    4 1
     2    2    5 1
     3    2    3 1
     4    2    9 1
     5    2   10 1
     6    3    4 1
     7    3   11 1
     8    3   12 1
     9    5    6 1
    10    5    7 1
    11    5    8 1
@<SCITEGIC>ATOM_PROPERTY
Formal Charge
SciTegic.value.StringValue
1 0
2 0
3 0
4 0
5 0
6 0
7 0
8 0
9 0
10 0
11 0
12 0

@<SCITEGIC>ATOM_PROPERTY
pdb_tempFactor
SciTegic.value.DoubleValue
1 0.00
2 0.00
3 0.00
4 0.00
5 0.00
6 0.00
7 0.00
8 0.00
9 0.00
10 0.00
11 0.00
12 0.00

@<SCITEGIC>ATOM_PROPERTY
pdb_occupancy
SciTegic.value.DoubleValue
1 1.00
2 1.00
3 1.00
4 1.00
5 1.00
6 1.00
7 1.00
8 1.00
9 1.00
10 1.00
11 1.00
12 1.00

#	copyright 2023 drugdesign.org
#	Creation time:	2024-01-11T10:58:44Z

@<TRIPOS>MOLECULE
propanol_360.sd
   12    11     0 0 0
SMALL
USER_CHARGES


@<TRIPOS>ATOM
      1 H1            0.000000    0.000000    0.000000 H        1 SUBUNIT    0.2100
      2 C2            2.945200    1.441100   -0.000700 C.3      1 SUBUNIT   -0.0327
      3 C3            1.414900    1.350200    0.000000 C.3      1 SUBUNIT    0.0429
      4 O4            0.950000    0.000000    0.000000 O.3      1 SUBUNIT   -0.3962
      5 C5            3.612000    0.066300   -0.124700 C.3      1 SUBUNIT   -0.0632
      6 H6            3.314300   -0.579400    0.725000 H        1 SUBUNIT    0.0231
      7 H7            3.304200   -0.422300   -1.070300 H        1 SUBUNIT    0.0231
      8 H8            4.714600    0.176200   -0.121400 H        1 SUBUNIT    0.0231
      9 H9            3.277800    2.091300   -0.834000 H        1 SUBUNIT    0.0287
     10 H10           3.287800    1.937000    0.929000 H        1 SUBUNIT    0.0287
     11 H11           1.011300    1.881500   -0.884600 H        1 SUBUNIT    0.0563
     12 H12           1.012200    1.881200    0.885100 H        1 SUBUNIT    0.0563
@<TRIPOS>BOND
     1    1    4 1
     2    2    5 1
     3    2    3 1
     4    2    9 1
     5    2   10 1
     6    3    4 1
     7    3   11 1
     8    3   12 1
     9    5    6 1
    10    5    7 1
    11    5    8 1
@<SCITEGIC>ATOM_PROPERTY
Formal Charge
SciTegic.value.StringValue
1 0
2 0
3 0
4 0
5 0
6 0
7 0
8 0
9 0
10 0
11 0
12 0

@<SCITEGIC>ATOM_PROPERTY
pdb_tempFactor
SciTegic.value.DoubleValue
1 0.00
2 0.00
3 0.00
4 0.00
5 0.00
6 0.00
7 0.00
8 0.00
9 0.00
10 0.00
11 0.00
12 0.00

@<SCITEGIC>ATOM_PROPERTY
pdb_occupancy
SciTegic.value.DoubleValue
1 1.00
2 1.00
3 1.00
4 1.00
5 1.00
6 1.00
7 1.00
8 1.00
9 1.00
10 1.00
11 1.00
12 1.00

#	copyright 2023 drugdesign.org
#	Creation time:	2024-01-11T10:58:44Z

@<TRIPOS>MOLECULE
propanol_360.sd
   12    11     0 0 0
SMALL
USER_CHARGES


@<TRIPOS>ATOM
      1 H1            0.000000    0.000000    0.000000 H        1 SUBUNIT    0.2100
      2 C2            2.945200    1.441100   -0.000700 C.3      1 SUBUNIT   -0.0327
      3 C3            1.414900    1.350200    0.000000 C.3      1 SUBUNIT    0.0429
      4 O4            0.950000    0.000000    0.000000 O.3      1 SUBUNIT   -0.3962
      5 C5            3.611900    0.068700   -0.149400 C.3      1 SUBUNIT   -0.0632
      6 H6            3.315000   -0.591700    0.689300 H        1 SUBUNIT    0.0231
      7 H7            3.303000   -0.403400   -1.103000 H        1 SUBUNIT    0.0231
      8 H8            4.714400    0.178500   -0.145200 H        1 SUBUNIT    0.0231
      9 H9            3.277000    2.105700   -0.822800 H        1 SUBUNIT    0.0287
     10 H10           3.288800    1.920800    0.937200 H        1 SUBUNIT    0.0287
     11 H11           1.011300    1.881500   -0.884600 H        1 SUBUNIT    0.0563
     12 H12           1.012200    1.881200    0.885100 H        1 SUBUNIT    0.0563
@<TRIPOS>BOND
     1    1    4 1
     2    2    5 1
     3    2    3 1
     4    2    9 1
     5    2   10 1
     6    3    4 1
     7    3   11 1
     8    3   12 1
     9    5    6 1
    10    5    7 1
    11    5    8 1
@<SCITEGIC>ATOM_PROPERTY
Formal Charge
SciTegic.value.StringValue
1 0
2 0
3 0
4 0
5 0
6 0
7 0
8 0
9 0
10 0
11 0
12 0

@<SCITEGIC>ATOM_PROPERTY
pdb_tempFactor
SciTegic.value.DoubleValue
1 0.00
2 0.00
3 0.00
4 0.00
5 0.00
6 0.00
7 0.00
8 0.00
9 0.00
10 0.00
11 0.00
12 0.00

@<SCITEGIC>ATOM_PROPERTY
pdb_occupancy
SciTegic.value.DoubleValue
1 1.00
2 1.00
3 1.00
4 1.00
5 1.00
6 1.00
7 1.00
8 1.00
9 1.00
10 1.00
11 1.00
12 1.00

#	copyright 2023 drugdesign.org
#	Creation time:	2024-01-11T10:58:44Z

@<TRIPOS>MOLECULE
propanol_360.sd
   12    11     0 0 0
SMALL
USER_CHARGES


@<TRIPOS>ATOM
      1 H1            0.000000    0.000000    0.000000 H        1 SUBUNIT    0.2100
      2 C2            2.945200    1.441100   -0.000700 C.3      1 SUBUNIT   -0.0327
      3 C3            1.414900    1.350200    0.000000 C.3      1 SUBUNIT    0.0429
      4 O4            0.950000    0.000000    0.000000 O.3      1 SUBUNIT   -0.3962
      5 C5            3.611700    0.071500   -0.173900 C.3      1 SUBUNIT   -0.0632
      6 H6            3.315700   -0.603400    0.653400 H        1 SUBUNIT    0.0231
      7 H7            3.301800   -0.383900   -1.135300 H        1 SUBUNIT    0.0231
      8 H8            4.714300    0.181200   -0.169000 H        1 SUBUNIT    0.0231
      9 H9            3.276100    2.119900   -0.811500 H        1 SUBUNIT    0.0287
     10 H10           3.289700    1.904300    0.945000 H        1 SUBUNIT    0.0287
     11 H11           1.011300    1.881500   -0.884600 H        1 SUBUNIT    0.0563
     12 H12           1.012200    1.881200    0.885100 H        1 SUBUNIT    0.0563
@<TRIPOS>BOND
     1    1    4 1
     2    2    5 1
     3    2    3 1
     4    2    9 1
     5    2   10 1
     6    3    4 1
     7    3   11 1
     8    3   12 1
     9    5    6 1
    10    5    7 1
    11    5    8 1
@<SCITEGIC>ATOM_PROPERTY
Formal Charge
SciTegic.value.StringValue
1 0
2 0
3 0
4 0
5 0
6 0
7 0
8 0
9 0
10 0
11 0
12 0

@<SCITEGIC>ATOM_PROPERTY
pdb_tempFactor
SciTegic.value.DoubleValue
1 0.00
2 0.00
3 0.00
4 0.00
5 0.00
6 0.00
7 0.00
8 0.00
9 0.00
10 0.00
11 0.00
12 0.00

@<SCITEGIC>ATOM_PROPERTY
pdb_occupancy
SciTegic.value.DoubleValue
1 1.00
2 1.00
3 1.00
4 1.00
5 1.00
6 1.00
7 1.00
8 1.00
9 1.00
10 1.00
11 1.00
12 1.00

#	copyright 2023 drugdesign.org
#	Creation time:	2024-01-11T10:58:44Z

@<TRIPOS>MOLECULE
propanol_360.sd
   12    11     0 0 0
SMALL
USER_CHARGES


@<TRIPOS>ATOM
      1 H1            0.000000    0.000000    0.000000 H        1 SUBUNIT    0.2100
      2 C2            2.945200    1.441100   -0.000700 C.3      1 SUBUNIT   -0.0327
      3 C3            1.414900    1.350200    0.000000 C.3      1 SUBUNIT    0.0429
      4 O4            0.950000    0.000000    0.000000 O.3      1 SUBUNIT   -0.3962
      5 C5            3.611500    0.074700   -0.198500 C.3      1 SUBUNIT   -0.0632
      6 H6            3.316300   -0.614500    0.617300 H        1 SUBUNIT    0.0231
      7 H7            3.300600   -0.363800   -1.167300 H        1 SUBUNIT    0.0231
      8 H8            4.714100    0.184300   -0.192800 H        1 SUBUNIT    0.0231
      9 H9            3.275300    2.133900   -0.799900 H        1 SUBUNIT    0.0287
     10 H10           3.290700    1.887800    0.952600 H        1 SUBUNIT    0.0287
     11 H11           1.011300    1.881500   -0.884600 H        1 SUBUNIT    0.0563
     12 H12           1.012200    1.881200    0.885100 H        1 SUBUNIT    0.0563
@<TRIPOS>BOND
     1    1    4 1
     2    2    5 1
     3    2    3 1
     4    2    9 1
     5    2   10 1
     6    3    4 1
     7    3   11 1
     8    3   12 1
     9    5    6 1
    10    5    7 1
    11    5    8 1
@<SCITEGIC>ATOM_PROPERTY
Formal Charge
SciTegic.value.StringValue
1 0
2 0
3 0
4 0
5 0
6 0
7 0
8 0
9 0
10 0
11 0
12 0

@<SCITEGIC>ATOM_PROPERTY
pdb_tempFactor
SciTegic.value.DoubleValue
1 0.00
2 0.00
3 0.00
4 0.00
5 0.00
6 0.00
7 0.00
8 0.00
9 0.00
10 0.00
11 0.00
12 0.00

@<SCITEGIC>ATOM_PROPERTY
pdb_occupancy
SciTegic.value.DoubleValue
1 1.00
2 1.00
3 1.00
4 1.00
5 1.00
6 1.00
7 1.00
8 1.00
9 1.00
10 1.00
11 1.00
12 1.00

#	copyright 2023 drugdesign.org
#	Creation time:	2024-01-11T10:58:44Z

@<TRIPOS>MOLECULE
propanol_360.sd
   12    11     0 0 0
SMALL
USER_CHARGES


@<TRIPOS>ATOM
      1 H1            0.000000    0.000000    0.000000 H        1 SUBUNIT    0.2100
      2 C2            2.945200    1.441100   -0.000700 C.3      1 SUBUNIT   -0.0327
      3 C3            1.414900    1.350200    0.000000 C.3      1 SUBUNIT    0.0429
      4 O4            0.950000    0.000000    0.000000 O.3      1 SUBUNIT   -0.3962
      5 C5            3.611300    0.078400   -0.222900 C.3      1 SUBUNIT   -0.0632
      6 H6            3.316900   -0.624900    0.581000 H        1 SUBUNIT    0.0231
      7 H7            3.299400   -0.343200   -1.199000 H        1 SUBUNIT    0.0231
      8 H8            4.713800    0.187900   -0.216500 H        1 SUBUNIT    0.0231
      9 H9            3.274500    2.147800   -0.788000 H        1 SUBUNIT    0.0287
     10 H10           3.291700    1.871100    0.959900 H        1 SUBUNIT    0.0287
     11 H11           1.011300    1.881500   -0.884600 H        1 SUBUNIT    0.0563
     12 H12           1.012200    1.881200    0.885100 H        1 SUBUNIT    0.0563
@<TRIPOS>BOND
     1    1    4 1
     2    2    5 1
     3    2    3 1
     4    2    9 1
     5    2   10 1
     6    3    4 1
     7    3   11 1
     8    3   12 1
     9    5    6 1
    10    5    7 1
    11    5    8 1
@<SCITEGIC>ATOM_PROPERTY
Formal Charge
SciTegic.value.StringValue
1 0
2 0
3 0
4 0
5 0
6 0
7 0
8 0
9 0
10 0
11 0
12 0

@<SCITEGIC>ATOM_PROPERTY
pdb_tempFactor
SciTegic.value.DoubleValue
1 0.00
2 0.00
3 0.00
4 0.00
5 0.00
6 0.00
7 0.00
8 0.00
9 0.00
10 0.00
11 0.00
12 0.00

@<SCITEGIC>ATOM_PROPERTY
pdb_occupancy
SciTegic.value.DoubleValue
1 1.00
2 1.00
3 1.00
4 1.00
5 1.00
6 1.00
7 1.00
8 1.00
9 1.00
10 1.00
11 1.00
12 1.00

#	copyright 2023 drugdesign.org
#	Creation time:	2024-01-11T10:58:44Z

@<TRIPOS>MOLECULE
propanol_360.sd
   12    11     0 0 0
SMALL
USER_CHARGES


@<TRIPOS>ATOM
      1 H1            0.000000    0.000000    0.000000 H        1 SUBUNIT    0.2100
      2 C2            2.945200    1.441100   -0.000700 C.3      1 SUBUNIT   -0.0327
      3 C3            1.414900    1.350200    0.000000 C.3      1 SUBUNIT    0.0429
      4 O4            0.950000    0.000000    0.000000 O.3      1 SUBUNIT   -0.3962
      5 C5            3.611000    0.082500   -0.247300 C.3      1 SUBUNIT   -0.0632
      6 H6            3.317500   -0.634800    0.544600 H        1 SUBUNIT    0.0231
      7 H7            3.298100   -0.322100   -1.230200 H        1 SUBUNIT    0.0231
      8 H8            4.713600    0.191800   -0.240100 H        1 SUBUNIT    0.0231
      9 H9            3.273700    2.161400   -0.775900 H        1 SUBUNIT    0.0287
     10 H10           3.292700    1.854300    0.966900 H        1 SUBUNIT    0.0287
     11 H11           1.011300    1.881500   -0.884600 H        1 SUBUNIT    0.0563
     12 H12           1.012200    1.881200    0.885100 H        1 SUBUNIT    0.0563
@<TRIPOS>BOND
     1    1    4 1
     2    2    5 1
     3    2    3 1
     4    2    9 1
     5    2   10 1
     6    3    4 1
     7    3   11 1
     8    3   12 1
     9    5    6 1
    10    5    7 1
    11    5    8 1
@<SCITEGIC>ATOM_PROPERTY
Formal Charge
SciTegic.value.StringValue
1 0
2 0
3 0
4 0
5 0
6 0
7 0
8 0
9 0
10 0
11 0
12 0

@<SCITEGIC>ATOM_PROPERTY
pdb_tempFactor
SciTegic.value.DoubleValue
1 0.00
2 0.00
3 0.00
4 0.00
5 0.00
6 0.00
7 0.00
8 0.00
9 0.00
10 0.00
11 0.00
12 0.00

@<SCITEGIC>ATOM_PROPERTY
pdb_occupancy
SciTegic.value.DoubleValue
1 1.00
2 1.00
3 1.00
4 1.00
5 1.00
6 1.00
7 1.00
8 1.00
9 1.00
10 1.00
11 1.00
12 1.00

#	copyright 2023 drugdesign.org
#	Creation time:	2024-01-11T10:58:44Z

@<TRIPOS>MOLECULE
propanol_360.sd
   12    11     0 0 0
SMALL
USER_CHARGES


@<TRIPOS>ATOM
      1 H1            0.000000    0.000000    0.000000 H        1 SUBUNIT    0.2100
      2 C2            2.945200    1.441100   -0.000700 C.3      1 SUBUNIT   -0.0327
      3 C3            1.414900    1.350200    0.000000 C.3      1 SUBUNIT    0.0429
      4 O4            0.950000    0.000000    0.000000 O.3      1 SUBUNIT   -0.3962
      5 C5            3.610800    0.087000   -0.271700 C.3      1 SUBUNIT   -0.0632
      6 H6            3.318000   -0.644000    0.507900 H        1 SUBUNIT    0.0231
      7 H7            3.296800   -0.300400   -1.261100 H        1 SUBUNIT    0.0231
      8 H8            4.713300    0.196200   -0.263700 H        1 SUBUNIT    0.0231
      9 H9            3.272900    2.174800   -0.763600 H        1 SUBUNIT    0.0287
     10 H10           3.293700    1.837400    0.973600 H        1 SUBUNIT    0.0287
     11 H11           1.011300    1.881500   -0.884600 H        1 SUBUNIT    0.0563
     12 H12           1.012200    1.881200    0.885100 H        1 SUBUNIT    0.0563
@<TRIPOS>BOND
     1    1    4 1
     2    2    5 1
     3    2    3 1
     4    2    9 1
     5    2   10 1
     6    3    4 1
     7    3   11 1
     8    3   12 1
     9    5    6 1
    10    5    7 1
    11    5    8 1
@<SCITEGIC>ATOM_PROPERTY
Formal Charge
SciTegic.value.StringValue
1 0
2 0
3 0
4 0
5 0
6 0
7 0
8 0
9 0
10 0
11 0
12 0

@<SCITEGIC>ATOM_PROPERTY
pdb_tempFactor
SciTegic.value.DoubleValue
1 0.00
2 0.00
3 0.00
4 0.00
5 0.00
6 0.00
7 0.00
8 0.00
9 0.00
10 0.00
11 0.00
12 0.00

@<SCITEGIC>ATOM_PROPERTY
pdb_occupancy
SciTegic.value.DoubleValue
1 1.00
2 1.00
3 1.00
4 1.00
5 1.00
6 1.00
7 1.00
8 1.00
9 1.00
10 1.00
11 1.00
12 1.00

#	copyright 2023 drugdesign.org
#	Creation time:	2024-01-11T10:58:44Z

@<TRIPOS>MOLECULE
propanol_360.sd
   12    11     0 0 0
SMALL
USER_CHARGES


@<TRIPOS>ATOM
      1 H1            0.000000    0.000000    0.000000 H        1 SUBUNIT    0.2100
      2 C2            2.945200    1.441100   -0.000700 C.3      1 SUBUNIT   -0.0327
      3 C3            1.414900    1.350200    0.000000 C.3      1 SUBUNIT    0.0429
      4 O4            0.950000    0.000000    0.000000 O.3      1 SUBUNIT   -0.3962
      5 C5            3.610500    0.091900   -0.295900 C.3      1 SUBUNIT   -0.0632
      6 H6            3.318500   -0.652500    0.471100 H        1 SUBUNIT    0.0231
      7 H7            3.295500   -0.278200   -1.291600 H        1 SUBUNIT    0.0231
      8 H8            4.713000    0.201000   -0.287100 H        1 SUBUNIT    0.0231
      9 H9            3.272100    2.188000   -0.751000 H        1 SUBUNIT    0.0287
     10 H10           3.294700    1.820400    0.980000 H        1 SUBUNIT    0.0287
     11 H11           1.011300    1.881500   -0.884600 H        1 SUBUNIT    0.0563
     12 H12           1.012200    1.881200    0.885100 H        1 SUBUNIT    0.0563
@<TRIPOS>BOND
     1    1    4 1
     2    2    5 1
     3    2    3 1
     4    2    9 1
     5    2   10 1
     6    3    4 1
     7    3   11 1
     8    3   12 1
     9    5    6 1
    10    5    7 1
    11    5    8 1
@<SCITEGIC>ATOM_PROPERTY
Formal Charge
SciTegic.value.StringValue
1 0
2 0
3 0
4 0
5 0
6 0
7 0
8 0
9 0
10 0
11 0
12 0

@<SCITEGIC>ATOM_PROPERTY
pdb_tempFactor
SciTegic.value.DoubleValue
1 0.00
2 0.00
3 0.00
4 0.00
5 0.00
6 0.00
7 0.00
8 0.00
9 0.00
10 0.00
11 0.00
12 0.00

@<SCITEGIC>ATOM_PROPERTY
pdb_occupancy
SciTegic.value.DoubleValue
1 1.00
2 1.00
3 1.00
4 1.00
5 1.00
6 1.00
7 1.00
8 1.00
9 1.00
10 1.00
11 1.00
12 1.00

#	copyright 2023 drugdesign.org
#	Creation time:	2024-01-11T10:58:44Z

@<TRIPOS>MOLECULE
propanol_360.sd
   12    11     0 0 0
SMALL
USER_CHARGES


@<TRIPOS>ATOM
      1 H1            0.000000    0.000000    0.000000 H        1 SUBUNIT    0.2100
      2 C2            2.945200    1.441100   -0.000700 C.3      1 SUBUNIT   -0.0327
      3 C3            1.414900    1.350200    0.000000 C.3      1 SUBUNIT    0.0429
      4 O4            0.950000    0.000000    0.000000 O.3      1 SUBUNIT   -0.3962
      5 C5            3.610100    0.097200   -0.320000 C.3      1 SUBUNIT   -0.0632
      6 H6            3.319000   -0.660400    0.434200 H        1 SUBUNIT    0.0231
      7 H7            3.294100   -0.255400   -1.321800 H        1 SUBUNIT    0.0231
      8 H8            4.712700    0.206200   -0.310500 H        1 SUBUNIT    0.0231
      9 H9            3.271300    2.200900   -0.738300 H        1 SUBUNIT    0.0287
     10 H10           3.295800    1.803200    0.986000 H        1 SUBUNIT    0.0287
     11 H11           1.011300    1.881500   -0.884600 H        1 SUBUNIT    0.0563
     12 H12           1.012200    1.881200    0.885100 H        1 SUBUNIT    0.0563
@<TRIPOS>BOND
     1    1    4 1
     2    2    5 1
     3    2    3 1
     4    2    9 1
     5    2   10 1
     6    3    4 1
     7    3   11 1
     8    3   12 1
     9    5    6 1
    10    5    7 1
    11    5    8 1
@<SCITEGIC>ATOM_PROPERTY
Formal Charge
SciTegic.value.StringValue
1 0
2 0
3 0
4 0
5 0
6 0
7 0
8 0
9 0
10 0
11 0
12 0

@<SCITEGIC>ATOM_PROPERTY
pdb_tempFactor
SciTegic.value.DoubleValue
1 0.00
2 0.00
3 0.00
4 0.00
5 0.00
6 0.00
7 0.00
8 0.00
9 0.00
10 0.00
11 0.00
12 0.00

@<SCITEGIC>ATOM_PROPERTY
pdb_occupancy
SciTegic.value.DoubleValue
1 1.00
2 1.00
3 1.00
4 1.00
5 1.00
6 1.00
7 1.00
8 1.00
9 1.00
10 1.00
11 1.00
12 1.00

#	copyright 2023 drugdesign.org
#	Creation time:	2024-01-11T10:58:44Z

@<TRIPOS>MOLECULE
propanol_360.sd
   12    11     0 0 0
SMALL
USER_CHARGES


@<TRIPOS>ATOM
      1 H1            0.000000    0.000000    0.000000 H        1 SUBUNIT    0.2100
      2 C2            2.945200    1.441100   -0.000700 C.3      1 SUBUNIT   -0.0327
      3 C3            1.414900    1.350200    0.000000 C.3      1 SUBUNIT    0.0429
      4 O4            0.950000    0.000000    0.000000 O.3      1 SUBUNIT   -0.3962
      5 C5            3.609800    0.103000   -0.344100 C.3      1 SUBUNIT   -0.0632
      6 H6            3.319400   -0.667700    0.397100 H        1 SUBUNIT    0.0231
      7 H7            3.292700   -0.232100   -1.351500 H        1 SUBUNIT    0.0231
      8 H8            4.712400    0.211700   -0.333800 H        1 SUBUNIT    0.0231
      9 H9            3.270600    2.213600   -0.725300 H        1 SUBUNIT    0.0287
     10 H10           3.296800    1.786000    0.991800 H        1 SUBUNIT    0.0287
     11 H11           1.011300    1.881500   -0.884600 H        1 SUBUNIT    0.0563
     12 H12           1.012200    1.881200    0.885100 H        1 SUBUNIT    0.0563
@<TRIPOS>BOND
     1    1    4 1
     2    2    5 1
     3    2    3 1
     4    2    9 1
     5    2   10 1
     6    3    4 1
     7    3   11 1
     8    3   12 1
     9    5    6 1
    10    5    7 1
    11    5    8 1
@<SCITEGIC>ATOM_PROPERTY
Formal Charge
SciTegic.value.StringValue
1 0
2 0
3 0
4 0
5 0
6 0
7 0
8 0
9 0
10 0
11 0
12 0

@<SCITEGIC>ATOM_PROPERTY
pdb_tempFactor
SciTegic.value.DoubleValue
1 0.00
2 0.00
3 0.00
4 0.00
5 0.00
6 0.00
7 0.00
8 0.00
9 0.00
10 0.00
11 0.00
12 0.00

@<SCITEGIC>ATOM_PROPERTY
pdb_occupancy
SciTegic.value.DoubleValue
1 1.00
2 1.00
3 1.00
4 1.00
5 1.00
6 1.00
7 1.00
8 1.00
9 1.00
10 1.00
11 1.00
12 1.00

#	copyright 2023 drugdesign.org
#	Creation time:	2024-01-11T10:58:44Z

@<TRIPOS>MOLECULE
propanol_360.sd
   12    11     0 0 0
SMALL
USER_CHARGES


@<TRIPOS>ATOM
      1 H1            0.000000    0.000000    0.000000 H        1 SUBUNIT    0.2100
      2 C2            2.945200    1.441100   -0.000700 C.3      1 SUBUNIT   -0.0327
      3 C3            1.414900    1.350200    0.000000 C.3      1 SUBUNIT    0.0429
      4 O4            0.950000    0.000000    0.000000 O.3      1 SUBUNIT   -0.3962
      5 C5            3.609400    0.109200   -0.368000 C.3      1 SUBUNIT   -0.0632
      6 H6            3.319800   -0.674300    0.360000 H        1 SUBUNIT    0.0231
      7 H7            3.291300   -0.208400   -1.380800 H        1 SUBUNIT    0.0231
      8 H8            4.712000    0.217700   -0.357000 H        1 SUBUNIT    0.0231
      9 H9            3.269900    2.226200   -0.712000 H        1 SUBUNIT    0.0287
     10 H10           3.297800    1.768600    0.997300 H        1 SUBUNIT    0.0287
     11 H11           1.011300    1.881500   -0.884600 H        1 SUBUNIT    0.0563
     12 H12           1.012200    1.881200    0.885100 H        1 SUBUNIT    0.0563
@<TRIPOS>BOND
     1    1    4 1
     2    2    5 1
     3    2    3 1
     4    2    9 1
     5    2   10 1
     6    3    4 1
     7    3   11 1
     8    3   12 1
     9    5    6 1
    10    5    7 1
    11    5    8 1
@<SCITEGIC>ATOM_PROPERTY
Formal Charge
SciTegic.value.StringValue
1 0
2 0
3 0
4 0
5 0
6 0
7 0
8 0
9 0
10 0
11 0
12 0

@<SCITEGIC>ATOM_PROPERTY
pdb_tempFactor
SciTegic.value.DoubleValue
1 0.00
2 0.00
3 0.00
4 0.00
5 0.00
6 0.00
7 0.00
8 0.00
9 0.00
10 0.00
11 0.00
12 0.00

@<SCITEGIC>ATOM_PROPERTY
pdb_occupancy
SciTegic.value.DoubleValue
1 1.00
2 1.00
3 1.00
4 1.00
5 1.00
6 1.00
7 1.00
8 1.00
9 1.00
10 1.00
11 1.00
12 1.00

#	copyright 2023 drugdesign.org
#	Creation time:	2024-01-11T10:58:44Z

@<TRIPOS>MOLECULE
propanol_360.sd
   12    11     0 0 0
SMALL
USER_CHARGES


@<TRIPOS>ATOM
      1 H1            0.000000    0.000000    0.000000 H        1 SUBUNIT    0.2100
      2 C2            2.945200    1.441100   -0.000700 C.3      1 SUBUNIT   -0.0327
      3 C3            1.414900    1.350200    0.000000 C.3      1 SUBUNIT    0.0429
      4 O4            0.950000    0.000000    0.000000 O.3      1 SUBUNIT   -0.3962
      5 C5            3.609000    0.115800   -0.391900 C.3      1 SUBUNIT   -0.0632
      6 H6            3.320100   -0.680200    0.322700 H        1 SUBUNIT    0.0231
      7 H7            3.289800   -0.184100   -1.409700 H        1 SUBUNIT    0.0231
      8 H8            4.711600    0.224100   -0.380100 H        1 SUBUNIT    0.0231
      9 H9            3.269100    2.238400   -0.698600 H        1 SUBUNIT    0.0287
     10 H10           3.298900    1.751200    1.002500 H        1 SUBUNIT    0.0287
     11 H11           1.011300    1.881500   -0.884600 H        1 SUBUNIT    0.0563
     12 H12           1.012200    1.881200    0.885100 H        1 SUBUNIT    0.0563
@<TRIPOS>BOND
     1    1    4 1
     2    2    5 1
     3    2    3 1
     4    2    9 1
     5    2   10 1
     6    3    4 1
     7    3   11 1
     8    3   12 1
     9    5    6 1
    10    5    7 1
    11    5    8 1
@<SCITEGIC>ATOM_PROPERTY
Formal Charge
SciTegic.value.StringValue
1 0
2 0
3 0
4 0
5 0
6 0
7 0
8 0
9 0
10 0
11 0
12 0

@<SCITEGIC>ATOM_PROPERTY
pdb_tempFactor
SciTegic.value.DoubleValue
1 0.00
2 0.00
3 0.00
4 0.00
5 0.00
6 0.00
7 0.00
8 0.00
9 0.00
10 0.00
11 0.00
12 0.00

@<SCITEGIC>ATOM_PROPERTY
pdb_occupancy
SciTegic.value.DoubleValue
1 1.00
2 1.00
3 1.00
4 1.00
5 1.00
6 1.00
7 1.00
8 1.00
9 1.00
10 1.00
11 1.00
12 1.00

#	copyright 2023 drugdesign.org
#	Creation time:	2024-01-11T10:58:44Z

@<TRIPOS>MOLECULE
propanol_360.sd
   12    11     0 0 0
SMALL
USER_CHARGES


@<TRIPOS>ATOM
      1 H1            0.000000    0.000000    0.000000 H        1 SUBUNIT    0.2100
      2 C2            2.945200    1.441100   -0.000700 C.3      1 SUBUNIT   -0.0327
      3 C3            1.414900    1.350200    0.000000 C.3      1 SUBUNIT    0.0429
      4 O4            0.950000    0.000000    0.000000 O.3      1 SUBUNIT   -0.3962
      5 C5            3.608600    0.122800   -0.415600 C.3      1 SUBUNIT   -0.0632
      6 H6            3.320400   -0.685500    0.285300 H        1 SUBUNIT    0.0231
      7 H7            3.288400   -0.159300   -1.438100 H        1 SUBUNIT    0.0231
      8 H8            4.711200    0.230900   -0.403100 H        1 SUBUNIT    0.0231
      9 H9            3.268400    2.250500   -0.684900 H        1 SUBUNIT    0.0287
     10 H10           3.299900    1.733700    1.007400 H        1 SUBUNIT    0.0287
     11 H11           1.011300    1.881500   -0.884600 H        1 SUBUNIT    0.0563
     12 H12           1.012200    1.881200    0.885100 H        1 SUBUNIT    0.0563
@<TRIPOS>BOND
     1    1    4 1
     2    2    5 1
     3    2    3 1
     4    2    9 1
     5    2   10 1
     6    3    4 1
     7    3   11 1
     8    3   12 1
     9    5    6 1
    10    5    7 1
    11    5    8 1
@<SCITEGIC>ATOM_PROPERTY
Formal Charge
SciTegic.value.StringValue
1 0
2 0
3 0
4 0
5 0
6 0
7 0
8 0
9 0
10 0
11 0
12 0

@<SCITEGIC>ATOM_PROPERTY
pdb_tempFactor
SciTegic.value.DoubleValue
1 0.00
2 0.00
3 0.00
4 0.00
5 0.00
6 0.00
7 0.00
8 0.00
9 0.00
10 0.00
11 0.00
12 0.00

@<SCITEGIC>ATOM_PROPERTY
pdb_occupancy
SciTegic.value.DoubleValue
1 1.00
2 1.00
3 1.00
4 1.00
5 1.00
6 1.00
7 1.00
8 1.00
9 1.00
10 1.00
11 1.00
12 1.00

#	copyright 2023 drugdesign.org
#	Creation time:	2024-01-11T10:58:44Z

@<TRIPOS>MOLECULE
propanol_360.sd
   12    11     0 0 0
SMALL
USER_CHARGES


@<TRIPOS>ATOM
      1 H1            0.000000    0.000000    0.000000 H        1 SUBUNIT    0.2100
      2 C2            2.945200    1.441100   -0.000700 C.3      1 SUBUNIT   -0.0327
      3 C3            1.414900    1.350200    0.000000 C.3      1 SUBUNIT    0.0429
      4 O4            0.950000    0.000000    0.000000 O.3      1 SUBUNIT   -0.3962
      5 C5            3.608100    0.130200   -0.439200 C.3      1 SUBUNIT   -0.0632
      6 H6            3.320700   -0.690200    0.247800 H        1 SUBUNIT    0.0231
      7 H7            3.286800   -0.134000   -1.466100 H        1 SUBUNIT    0.0231
      8 H8            4.710800    0.238100   -0.425900 H        1 SUBUNIT    0.0231
      9 H9            3.267700    2.262300   -0.671000 H        1 SUBUNIT    0.0287
     10 H10           3.300900    1.716100    1.012000 H        1 SUBUNIT    0.0287
     11 H11           1.011300    1.881500   -0.884600 H        1 SUBUNIT    0.0563
     12 H12           1.012200    1.881200    0.885100 H        1 SUBUNIT    0.0563
@<TRIPOS>BOND
     1    1    4 1
     2    2    5 1
     3    2    3 1
     4    2    9 1
     5    2   10 1
     6    3    4 1
     7    3   11 1
     8    3   12 1
     9    5    6 1
    10    5    7 1
    11    5    8 1
@<SCITEGIC>ATOM_PROPERTY
Formal Charge
SciTegic.value.StringValue
1 0
2 0
3 0
4 0
5 0
6 0
7 0
8 0
9 0
10 0
11 0
12 0

@<SCITEGIC>ATOM_PROPERTY
pdb_tempFactor
SciTegic.value.DoubleValue
1 0.00
2 0.00
3 0.00
4 0.00
5 0.00
6 0.00
7 0.00
8 0.00
9 0.00
10 0.00
11 0.00
12 0.00

@<SCITEGIC>ATOM_PROPERTY
pdb_occupancy
SciTegic.value.DoubleValue
1 1.00
2 1.00
3 1.00
4 1.00
5 1.00
6 1.00
7 1.00
8 1.00
9 1.00
10 1.00
11 1.00
12 1.00

#	copyright 2023 drugdesign.org
#	Creation time:	2024-01-11T10:58:44Z

@<TRIPOS>MOLECULE
propanol_360.sd
   12    11     0 0 0
SMALL
USER_CHARGES


@<TRIPOS>ATOM
      1 H1            0.000000    0.000000    0.000000 H        1 SUBUNIT    0.2100
      2 C2            2.945200    1.441100   -0.000700 C.3      1 SUBUNIT   -0.0327
      3 C3            1.414900    1.350200    0.000000 C.3      1 SUBUNIT    0.0429
      4 O4            0.950000    0.000000    0.000000 O.3      1 SUBUNIT   -0.3962
      5 C5            3.607600    0.138100   -0.462600 C.3      1 SUBUNIT   -0.0632
      6 H6            3.320900   -0.694200    0.210200 H        1 SUBUNIT    0.0231
      7 H7            3.285300   -0.108200   -1.493700 H        1 SUBUNIT    0.0231
      8 H8            4.710300    0.245700   -0.448700 H        1 SUBUNIT    0.0231
      9 H9            3.267100    2.273800   -0.657000 H        1 SUBUNIT    0.0287
     10 H10           3.302000    1.698400    1.016300 H        1 SUBUNIT    0.0287
     11 H11           1.011300    1.881500   -0.884600 H        1 SUBUNIT    0.0563
     12 H12           1.012200    1.881200    0.885100 H        1 SUBUNIT    0.0563
@<TRIPOS>BOND
     1    1    4 1
     2    2    5 1
     3    2    3 1
     4    2    9 1
     5    2   10 1
     6    3    4 1
     7    3   11 1
     8    3   12 1
     9    5    6 1
    10    5    7 1
    11    5    8 1
@<SCITEGIC>ATOM_PROPERTY
Formal Charge
SciTegic.value.StringValue
1 0
2 0
3 0
4 0
5 0
6 0
7 0
8 0
9 0
10 0
11 0
12 0

@<SCITEGIC>ATOM_PROPERTY
pdb_tempFactor
SciTegic.value.DoubleValue
1 0.00
2 0.00
3 0.00
4 0.00
5 0.00
6 0.00
7 0.00
8 0.00
9 0.00
10 0.00
11 0.00
12 0.00

@<SCITEGIC>ATOM_PROPERTY
pdb_occupancy
SciTegic.value.DoubleValue
1 1.00
2 1.00
3 1.00
4 1.00
5 1.00
6 1.00
7 1.00
8 1.00
9 1.00
10 1.00
11 1.00
12 1.00

#	copyright 2023 drugdesign.org
#	Creation time:	2024-01-11T10:58:44Z

@<TRIPOS>MOLECULE
propanol_360.sd
   12    11     0 0 0
SMALL
USER_CHARGES


@<TRIPOS>ATOM
      1 H1            0.000000    0.000000    0.000000 H        1 SUBUNIT    0.2100
      2 C2            2.945200    1.441100   -0.000700 C.3      1 SUBUNIT   -0.0327
      3 C3            1.414900    1.350200    0.000000 C.3      1 SUBUNIT    0.0429
      4 O4            0.950000    0.000000    0.000000 O.3      1 SUBUNIT   -0.3962
      5 C5            3.607100    0.146300   -0.486000 C.3      1 SUBUNIT   -0.0632
      6 H6            3.321100   -0.697600    0.172600 H        1 SUBUNIT    0.0231
      7 H7            3.283700   -0.082000   -1.520800 H        1 SUBUNIT    0.0231
      8 H8            4.709800    0.253700   -0.471200 H        1 SUBUNIT    0.0231
      9 H9            3.266400    2.285100   -0.642700 H        1 SUBUNIT    0.0287
     10 H10           3.303100    1.680600    1.020200 H        1 SUBUNIT    0.0287
     11 H11           1.011300    1.881500   -0.884600 H        1 SUBUNIT    0.0563
     12 H12           1.012200    1.881200    0.885100 H        1 SUBUNIT    0.0563
@<TRIPOS>BOND
     1    1    4 1
     2    2    5 1
     3    2    3 1
     4    2    9 1
     5    2   10 1
     6    3    4 1
     7    3   11 1
     8    3   12 1
     9    5    6 1
    10    5    7 1
    11    5    8 1
@<SCITEGIC>ATOM_PROPERTY
Formal Charge
SciTegic.value.StringValue
1 0
2 0
3 0
4 0
5 0
6 0
7 0
8 0
9 0
10 0
11 0
12 0

@<SCITEGIC>ATOM_PROPERTY
pdb_tempFactor
SciTegic.value.DoubleValue
1 0.00
2 0.00
3 0.00
4 0.00
5 0.00
6 0.00
7 0.00
8 0.00
9 0.00
10 0.00
11 0.00
12 0.00

@<SCITEGIC>ATOM_PROPERTY
pdb_occupancy
SciTegic.value.DoubleValue
1 1.00
2 1.00
3 1.00
4 1.00
5 1.00
6 1.00
7 1.00
8 1.00
9 1.00
10 1.00
11 1.00
12 1.00

#	copyright 2023 drugdesign.org
#	Creation time:	2024-01-11T10:58:44Z

@<TRIPOS>MOLECULE
propanol_360.sd
   12    11     0 0 0
SMALL
USER_CHARGES


@<TRIPOS>ATOM
      1 H1            0.000000    0.000000    0.000000 H        1 SUBUNIT    0.2100
      2 C2            2.945200    1.441100   -0.000700 C.3      1 SUBUNIT   -0.0327
      3 C3            1.414900    1.350200    0.000000 C.3      1 SUBUNIT    0.0429
      4 O4            0.950000    0.000000    0.000000 O.3      1 SUBUNIT   -0.3962
      5 C5            3.606600    0.155000   -0.509100 C.3      1 SUBUNIT   -0.0632
      6 H6            3.321200   -0.700200    0.134900 H        1 SUBUNIT    0.0231
      7 H7            3.282100   -0.055300   -1.547500 H        1 SUBUNIT    0.0231
      8 H8            4.709300    0.262100   -0.493700 H        1 SUBUNIT    0.0231
      9 H9            3.265700    2.296200   -0.628200 H        1 SUBUNIT    0.0287
     10 H10           3.304100    1.662800    1.023900 H        1 SUBUNIT    0.0287
     11 H11           1.011300    1.881500   -0.884600 H        1 SUBUNIT    0.0563
     12 H12           1.012200    1.881200    0.885100 H        1 SUBUNIT    0.0563
@<TRIPOS>BOND
     1    1    4 1
     2    2    5 1
     3    2    3 1
     4    2    9 1
     5    2   10 1
     6    3    4 1
     7    3   11 1
     8    3   12 1
     9    5    6 1
    10    5    7 1
    11    5    8 1
@<SCITEGIC>ATOM_PROPERTY
Formal Charge
SciTegic.value.StringValue
1 0
2 0
3 0
4 0
5 0
6 0
7 0
8 0
9 0
10 0
11 0
12 0

@<SCITEGIC>ATOM_PROPERTY
pdb_tempFactor
SciTegic.value.DoubleValue
1 0.00
2 0.00
3 0.00
4 0.00
5 0.00
6 0.00
7 0.00
8 0.00
9 0.00
10 0.00
11 0.00
12 0.00

@<SCITEGIC>ATOM_PROPERTY
pdb_occupancy
SciTegic.value.DoubleValue
1 1.00
2 1.00
3 1.00
4 1.00
5 1.00
6 1.00
7 1.00
8 1.00
9 1.00
10 1.00
11 1.00
12 1.00

#	copyright 2023 drugdesign.org
#	Creation time:	2024-01-11T10:58:44Z

@<TRIPOS>MOLECULE
propanol_360.sd
   12    11     0 0 0
SMALL
USER_CHARGES


@<TRIPOS>ATOM
      1 H1            0.000000    0.000000    0.000000 H        1 SUBUNIT    0.2100
      2 C2            2.945200    1.441100   -0.000700 C.3      1 SUBUNIT   -0.0327
      3 C3            1.414900    1.350200    0.000000 C.3      1 SUBUNIT    0.0429
      4 O4            0.950000    0.000000    0.000000 O.3      1 SUBUNIT   -0.3962
      5 C5            3.606100    0.164000   -0.532100 C.3      1 SUBUNIT   -0.0632
      6 H6            3.321300   -0.702300    0.097200 H        1 SUBUNIT    0.0231
      7 H7            3.280500   -0.028100   -1.573700 H        1 SUBUNIT    0.0231
      8 H8            4.708800    0.270900   -0.516000 H        1 SUBUNIT    0.0231
      9 H9            3.265100    2.307000   -0.613600 H        1 SUBUNIT    0.0287
     10 H10           3.305200    1.644900    1.027200 H        1 SUBUNIT    0.0287
     11 H11           1.011300    1.881500   -0.884600 H        1 SUBUNIT    0.0563
     12 H12           1.012200    1.881200    0.885100 H        1 SUBUNIT    0.0563
@<TRIPOS>BOND
     1    1    4 1
     2    2    5 1
     3    2    3 1
     4    2    9 1
     5    2   10 1
     6    3    4 1
     7    3   11 1
     8    3   12 1
     9    5    6 1
    10    5    7 1
    11    5    8 1
@<SCITEGIC>ATOM_PROPERTY
Formal Charge
SciTegic.value.StringValue
1 0
2 0
3 0
4 0
5 0
6 0
7 0
8 0
9 0
10 0
11 0
12 0

@<SCITEGIC>ATOM_PROPERTY
pdb_tempFactor
SciTegic.value.DoubleValue
1 0.00
2 0.00
3 0.00
4 0.00
5 0.00
6 0.00
7 0.00
8 0.00
9 0.00
10 0.00
11 0.00
12 0.00

@<SCITEGIC>ATOM_PROPERTY
pdb_occupancy
SciTegic.value.DoubleValue
1 1.00
2 1.00
3 1.00
4 1.00
5 1.00
6 1.00
7 1.00
8 1.00
9 1.00
10 1.00
11 1.00
12 1.00

#	copyright 2023 drugdesign.org
#	Creation time:	2024-01-11T10:58:44Z

@<TRIPOS>MOLECULE
propanol_360.sd
   12    11     0 0 0
SMALL
USER_CHARGES


@<TRIPOS>ATOM
      1 H1            0.000000    0.000000    0.000000 H        1 SUBUNIT    0.2100
      2 C2            2.945200    1.441100   -0.000700 C.3      1 SUBUNIT   -0.0327
      3 C3            1.414900    1.350200    0.000000 C.3      1 SUBUNIT    0.0429
      4 O4            0.950000    0.000000    0.000000 O.3      1 SUBUNIT   -0.3962
      5 C5            3.605500    0.173500   -0.555000 C.3      1 SUBUNIT   -0.0632
      6 H6            3.321400   -0.703700    0.059500 H        1 SUBUNIT    0.0231
      7 H7            3.278900   -0.000500   -1.599400 H        1 SUBUNIT    0.0231
      8 H8            4.708200    0.280000   -0.538100 H        1 SUBUNIT    0.0231
      9 H9            3.264500    2.317500   -0.598700 H        1 SUBUNIT    0.0287
     10 H10           3.306200    1.627000    1.030200 H        1 SUBUNIT    0.0287
     11 H11           1.011300    1.881500   -0.884600 H        1 SUBUNIT    0.0563
     12 H12           1.012200    1.881200    0.885100 H        1 SUBUNIT    0.0563
@<TRIPOS>BOND
     1    1    4 1
     2    2    5 1
     3    2    3 1
     4    2    9 1
     5    2   10 1
     6    3    4 1
     7    3   11 1
     8    3   12 1
     9    5    6 1
    10    5    7 1
    11    5    8 1
@<SCITEGIC>ATOM_PROPERTY
Formal Charge
SciTegic.value.StringValue
1 0
2 0
3 0
4 0
5 0
6 0
7 0
8 0
9 0
10 0
11 0
12 0

@<SCITEGIC>ATOM_PROPERTY
pdb_tempFactor
SciTegic.value.DoubleValue
1 0.00
2 0.00
3 0.00
4 0.00
5 0.00
6 0.00
7 0.00
8 0.00
9 0.00
10 0.00
11 0.00
12 0.00

@<SCITEGIC>ATOM_PROPERTY
pdb_occupancy
SciTegic.value.DoubleValue
1 1.00
2 1.00
3 1.00
4 1.00
5 1.00
6 1.00
7 1.00
8 1.00
9 1.00
10 1.00
11 1.00
12 1.00

#	copyright 2023 drugdesign.org
#	Creation time:	2024-01-11T10:58:44Z

@<TRIPOS>MOLECULE
propanol_360.sd
   12    11     0 0 0
SMALL
USER_CHARGES


@<TRIPOS>ATOM
      1 H1            0.000000    0.000000    0.000000 H        1 SUBUNIT    0.2100
      2 C2            2.945200    1.441100   -0.000700 C.3      1 SUBUNIT   -0.0327
      3 C3            1.414900    1.350200    0.000000 C.3      1 SUBUNIT    0.0429
      4 O4            0.950000    0.000000    0.000000 O.3      1 SUBUNIT   -0.3962
      5 C5            3.604900    0.183300   -0.577700 C.3      1 SUBUNIT   -0.0632
      6 H6            3.321400   -0.704400    0.021700 H        1 SUBUNIT    0.0231
      7 H7            3.277200    0.027600   -1.624600 H        1 SUBUNIT    0.0231
      8 H8            4.707600    0.289500   -0.560100 H        1 SUBUNIT    0.0231
      9 H9            3.263900    2.327800   -0.583700 H        1 SUBUNIT    0.0287
     10 H10           3.307300    1.609000    1.032900 H        1 SUBUNIT    0.0287
     11 H11           1.011300    1.881500   -0.884600 H        1 SUBUNIT    0.0563
     12 H12           1.012200    1.881200    0.885100 H        1 SUBUNIT    0.0563
@<TRIPOS>BOND
     1    1    4 1
     2    2    5 1
     3    2    3 1
     4    2    9 1
     5    2   10 1
     6    3    4 1
     7    3   11 1
     8    3   12 1
     9    5    6 1
    10    5    7 1
    11    5    8 1
@<SCITEGIC>ATOM_PROPERTY
Formal Charge
SciTegic.value.StringValue
1 0
2 0
3 0
4 0
5 0
6 0
7 0
8 0
9 0
10 0
11 0
12 0

@<SCITEGIC>ATOM_PROPERTY
pdb_tempFactor
SciTegic.value.DoubleValue
1 0.00
2 0.00
3 0.00
4 0.00
5 0.00
6 0.00
7 0.00
8 0.00
9 0.00
10 0.00
11 0.00
12 0.00

@<SCITEGIC>ATOM_PROPERTY
pdb_occupancy
SciTegic.value.DoubleValue
1 1.00
2 1.00
3 1.00
4 1.00
5 1.00
6 1.00
7 1.00
8 1.00
9 1.00
10 1.00
11 1.00
12 1.00

#	copyright 2023 drugdesign.org
#	Creation time:	2024-01-11T10:58:44Z

@<TRIPOS>MOLECULE
propanol_360.sd
   12    11     0 0 0
SMALL
USER_CHARGES


@<TRIPOS>ATOM
      1 H1            0.000000    0.000000    0.000000 H        1 SUBUNIT    0.2100
      2 C2            2.945200    1.441100   -0.000700 C.3      1 SUBUNIT   -0.0327
      3 C3            1.414900    1.350200    0.000000 C.3      1 SUBUNIT    0.0429
      4 O4            0.950000    0.000000    0.000000 O.3      1 SUBUNIT   -0.3962
      5 C5            3.604300    0.193600   -0.600200 C.3      1 SUBUNIT   -0.0632
      6 H6            3.321400   -0.704400   -0.016100 H        1 SUBUNIT    0.0231
      7 H7            3.275500    0.056100   -1.649300 H        1 SUBUNIT    0.0231
      8 H8            4.707000    0.299500   -0.581900 H        1 SUBUNIT    0.0231
      9 H9            3.263300    2.337800   -0.568500 H        1 SUBUNIT    0.0287
     10 H10           3.308400    1.591000    1.035300 H        1 SUBUNIT    0.0287
     11 H11           1.011300    1.881500   -0.884600 H        1 SUBUNIT    0.0563
     12 H12           1.012200    1.881200    0.885100 H        1 SUBUNIT    0.0563
@<TRIPOS>BOND
     1    1    4 1
     2    2    5 1
     3    2    3 1
     4    2    9 1
     5    2   10 1
     6    3    4 1
     7    3   11 1
     8    3   12 1
     9    5    6 1
    10    5    7 1
    11    5    8 1
@<SCITEGIC>ATOM_PROPERTY
Formal Charge
SciTegic.value.StringValue
1 0
2 0
3 0
4 0
5 0
6 0
7 0
8 0
9 0
10 0
11 0
12 0

@<SCITEGIC>ATOM_PROPERTY
pdb_tempFactor
SciTegic.value.DoubleValue
1 0.00
2 0.00
3 0.00
4 0.00
5 0.00
6 0.00
7 0.00
8 0.00
9 0.00
10 0.00
11 0.00
12 0.00

@<SCITEGIC>ATOM_PROPERTY
pdb_occupancy
SciTegic.value.DoubleValue
1 1.00
2 1.00
3 1.00
4 1.00
5 1.00
6 1.00
7 1.00
8 1.00
9 1.00
10 1.00
11 1.00
12 1.00

#	copyright 2023 drugdesign.org
#	Creation time:	2024-01-11T10:58:44Z

@<TRIPOS>MOLECULE
propanol_360.sd
   12    11     0 0 0
SMALL
USER_CHARGES


@<TRIPOS>ATOM
      1 H1            0.000000    0.000000    0.000000 H        1 SUBUNIT    0.2100
      2 C2            2.945200    1.441100   -0.000700 C.3      1 SUBUNIT   -0.0327
      3 C3            1.414900    1.350200    0.000000 C.3      1 SUBUNIT    0.0429
      4 O4            0.950000    0.000000    0.000000 O.3      1 SUBUNIT   -0.3962
      5 C5            3.603600    0.204200   -0.622500 C.3      1 SUBUNIT   -0.0632
      6 H6            3.321300   -0.703900   -0.053800 H        1 SUBUNIT    0.0231
      7 H7            3.273700    0.085100   -1.673500 H        1 SUBUNIT    0.0231
      8 H8            4.706400    0.309800   -0.603500 H        1 SUBUNIT    0.0231
      9 H9            3.262700    2.347600   -0.553100 H        1 SUBUNIT    0.0287
     10 H10           3.309500    1.572900    1.037400 H        1 SUBUNIT    0.0287
     11 H11           1.011300    1.881500   -0.884600 H        1 SUBUNIT    0.0563
     12 H12           1.012200    1.881200    0.885100 H        1 SUBUNIT    0.0563
@<TRIPOS>BOND
     1    1    4 1
     2    2    5 1
     3    2    3 1
     4    2    9 1
     5    2   10 1
     6    3    4 1
     7    3   11 1
     8    3   12 1
     9    5    6 1
    10    5    7 1
    11    5    8 1
@<SCITEGIC>ATOM_PROPERTY
Formal Charge
SciTegic.value.StringValue
1 0
2 0
3 0
4 0
5 0
6 0
7 0
8 0
9 0
10 0
11 0
12 0

@<SCITEGIC>ATOM_PROPERTY
pdb_tempFactor
SciTegic.value.DoubleValue
1 0.00
2 0.00
3 0.00
4 0.00
5 0.00
6 0.00
7 0.00
8 0.00
9 0.00
10 0.00
11 0.00
12 0.00

@<SCITEGIC>ATOM_PROPERTY
pdb_occupancy
SciTegic.value.DoubleValue
1 1.00
2 1.00
3 1.00
4 1.00
5 1.00
6 1.00
7 1.00
8 1.00
9 1.00
10 1.00
11 1.00
12 1.00

#	copyright 2023 drugdesign.org
#	Creation time:	2024-01-11T10:58:44Z

@<TRIPOS>MOLECULE
propanol_360.sd
   12    11     0 0 0
SMALL
USER_CHARGES


@<TRIPOS>ATOM
      1 H1            0.000000    0.000000    0.000000 H        1 SUBUNIT    0.2100
      2 C2            2.945200    1.441100   -0.000700 C.3      1 SUBUNIT   -0.0327
      3 C3            1.414900    1.350200    0.000000 C.3      1 SUBUNIT    0.0429
      4 O4            0.950000    0.000000    0.000000 O.3      1 SUBUNIT   -0.3962
      5 C5            3.603000    0.215200   -0.644600 C.3      1 SUBUNIT   -0.0632
      6 H6            3.321300   -0.702600   -0.091600 H        1 SUBUNIT    0.0231
      7 H7            3.272000    0.114400   -1.697200 H        1 SUBUNIT    0.0231
      8 H8            4.705800    0.320400   -0.624900 H        1 SUBUNIT    0.0231
      9 H9            3.262200    2.357100   -0.537600 H        1 SUBUNIT    0.0287
     10 H10           3.310500    1.554800    1.039200 H        1 SUBUNIT    0.0287
     11 H11           1.011300    1.881500   -0.884600 H        1 SUBUNIT    0.0563
     12 H12           1.012200    1.881200    0.885100 H        1 SUBUNIT    0.0563
@<TRIPOS>BOND
     1    1    4 1
     2    2    5 1
     3    2    3 1
     4    2    9 1
     5    2   10 1
     6    3    4 1
     7    3   11 1
     8    3   12 1
     9    5    6 1
    10    5    7 1
    11    5    8 1
@<SCITEGIC>ATOM_PROPERTY
Formal Charge
SciTegic.value.StringValue
1 0
2 0
3 0
4 0
5 0
6 0
7 0
8 0
9 0
10 0
11 0
12 0

@<SCITEGIC>ATOM_PROPERTY
pdb_tempFactor
SciTegic.value.DoubleValue
1 0.00
2 0.00
3 0.00
4 0.00
5 0.00
6 0.00
7 0.00
8 0.00
9 0.00
10 0.00
11 0.00
12 0.00

@<SCITEGIC>ATOM_PROPERTY
pdb_occupancy
SciTegic.value.DoubleValue
1 1.00
2 1.00
3 1.00
4 1.00
5 1.00
6 1.00
7 1.00
8 1.00
9 1.00
10 1.00
11 1.00
12 1.00

#	copyright 2023 drugdesign.org
#	Creation time:	2024-01-11T10:58:44Z

@<TRIPOS>MOLECULE
propanol_360.sd
   12    11     0 0 0
SMALL
USER_CHARGES


@<TRIPOS>ATOM
      1 H1            0.000000    0.000000    0.000000 H        1 SUBUNIT    0.2100
      2 C2            2.945200    1.441100   -0.000700 C.3      1 SUBUNIT   -0.0327
      3 C3            1.414900    1.350200    0.000000 C.3      1 SUBUNIT    0.0429
      4 O4            0.950000    0.000000    0.000000 O.3      1 SUBUNIT   -0.3962
      5 C5            3.602300    0.226600   -0.666600 C.3      1 SUBUNIT   -0.0632
      6 H6            3.321100   -0.700700   -0.129300 H        1 SUBUNIT    0.0231
      7 H7            3.270200    0.144200   -1.720400 H        1 SUBUNIT    0.0231
      8 H8            4.705100    0.331500   -0.646200 H        1 SUBUNIT    0.0231
      9 H9            3.261600    2.366300   -0.521800 H        1 SUBUNIT    0.0287
     10 H10           3.311600    1.536700    1.040600 H        1 SUBUNIT    0.0287
     11 H11           1.011300    1.881500   -0.884600 H        1 SUBUNIT    0.0563
     12 H12           1.012200    1.881200    0.885100 H        1 SUBUNIT    0.0563
@<TRIPOS>BOND
     1    1    4 1
     2    2    5 1
     3    2    3 1
     4    2    9 1
     5    2   10 1
     6    3    4 1
     7    3   11 1
     8    3   12 1
     9    5    6 1
    10    5    7 1
    11    5    8 1
@<SCITEGIC>ATOM_PROPERTY
Formal Charge
SciTegic.value.StringValue
1 0
2 0
3 0
4 0
5 0
6 0
7 0
8 0
9 0
10 0
11 0
12 0

@<SCITEGIC>ATOM_PROPERTY
pdb_tempFactor
SciTegic.value.DoubleValue
1 0.00
2 0.00
3 0.00
4 0.00
5 0.00
6 0.00
7 0.00
8 0.00
9 0.00
10 0.00
11 0.00
12 0.00

@<SCITEGIC>ATOM_PROPERTY
pdb_occupancy
SciTegic.value.DoubleValue
1 1.00
2 1.00
3 1.00
4 1.00
5 1.00
6 1.00
7 1.00
8 1.00
9 1.00
10 1.00
11 1.00
12 1.00

#	copyright 2023 drugdesign.org
#	Creation time:	2024-01-11T10:58:44Z

@<TRIPOS>MOLECULE
propanol_360.sd
   12    11     0 0 0
SMALL
USER_CHARGES


@<TRIPOS>ATOM
      1 H1            0.000000    0.000000    0.000000 H        1 SUBUNIT    0.2100
      2 C2            2.945200    1.441100   -0.000700 C.3      1 SUBUNIT   -0.0327
      3 C3            1.414900    1.350200    0.000000 C.3      1 SUBUNIT    0.0429
      4 O4            0.950000    0.000000    0.000000 O.3      1 SUBUNIT   -0.3962
      5 C5            3.601600    0.238400   -0.688300 C.3      1 SUBUNIT   -0.0632
      6 H6            3.321000   -0.698100   -0.167000 H        1 SUBUNIT    0.0231
      7 H7            3.268400    0.174300   -1.743100 H        1 SUBUNIT    0.0231
      8 H8            4.704400    0.342900   -0.667200 H        1 SUBUNIT    0.0231
      9 H9            3.261100    2.375200   -0.506000 H        1 SUBUNIT    0.0287
     10 H10           3.312700    1.518500    1.041700 H        1 SUBUNIT    0.0287
     11 H11           1.011300    1.881500   -0.884600 H        1 SUBUNIT    0.0563
     12 H12           1.012200    1.881200    0.885100 H        1 SUBUNIT    0.0563
@<TRIPOS>BOND
     1    1    4 1
     2    2    5 1
     3    2    3 1
     4    2    9 1
     5    2   10 1
     6    3    4 1
     7    3   11 1
     8    3   12 1
     9    5    6 1
    10    5    7 1
    11    5    8 1
@<SCITEGIC>ATOM_PROPERTY
Formal Charge
SciTegic.value.StringValue
1 0
2 0
3 0
4 0
5 0
6 0
7 0
8 0
9 0
10 0
11 0
12 0

@<SCITEGIC>ATOM_PROPERTY
pdb_tempFactor
SciTegic.value.DoubleValue
1 0.00
2 0.00
3 0.00
4 0.00
5 0.00
6 0.00
7 0.00
8 0.00
9 0.00
10 0.00
11 0.00
12 0.00

@<SCITEGIC>ATOM_PROPERTY
pdb_occupancy
SciTegic.value.DoubleValue
1 1.00
2 1.00
3 1.00
4 1.00
5 1.00
6 1.00
7 1.00
8 1.00
9 1.00
10 1.00
11 1.00
12 1.00

#	copyright 2023 drugdesign.org
#	Creation time:	2024-01-11T10:58:44Z

@<TRIPOS>MOLECULE
propanol_360.sd
   12    11     0 0 0
SMALL
USER_CHARGES


@<TRIPOS>ATOM
      1 H1            0.000000    0.000000    0.000000 H        1 SUBUNIT    0.2100
      2 C2            2.945200    1.441100   -0.000700 C.3      1 SUBUNIT   -0.0327
      3 C3            1.414900    1.350200    0.000000 C.3      1 SUBUNIT    0.0429
      4 O4            0.950000    0.000000    0.000000 O.3      1 SUBUNIT   -0.3962
      5 C5            3.600800    0.250600   -0.709800 C.3      1 SUBUNIT   -0.0632
      6 H6            3.320700   -0.694900   -0.204600 H        1 SUBUNIT    0.0231
      7 H7            3.266600    0.204900   -1.765200 H        1 SUBUNIT    0.0231
      8 H8            4.703700    0.354700   -0.688100 H        1 SUBUNIT    0.0231
      9 H9            3.260600    2.383900   -0.489900 H        1 SUBUNIT    0.0287
     10 H10           3.313800    1.500300    1.042500 H        1 SUBUNIT    0.0287
     11 H11           1.011300    1.881500   -0.884600 H        1 SUBUNIT    0.0563
     12 H12           1.012200    1.881200    0.885100 H        1 SUBUNIT    0.0563
@<TRIPOS>BOND
     1    1    4 1
     2    2    5 1
     3    2    3 1
     4    2    9 1
     5    2   10 1
     6    3    4 1
     7    3   11 1
     8    3   12 1
     9    5    6 1
    10    5    7 1
    11    5    8 1
@<SCITEGIC>ATOM_PROPERTY
Formal Charge
SciTegic.value.StringValue
1 0
2 0
3 0
4 0
5 0
6 0
7 0
8 0
9 0
10 0
11 0
12 0

@<SCITEGIC>ATOM_PROPERTY
pdb_tempFactor
SciTegic.value.DoubleValue
1 0.00
2 0.00
3 0.00
4 0.00
5 0.00
6 0.00
7 0.00
8 0.00
9 0.00
10 0.00
11 0.00
12 0.00

@<SCITEGIC>ATOM_PROPERTY
pdb_occupancy
SciTegic.value.DoubleValue
1 1.00
2 1.00
3 1.00
4 1.00
5 1.00
6 1.00
7 1.00
8 1.00
9 1.00
10 1.00
11 1.00
12 1.00

#	copyright 2023 drugdesign.org
#	Creation time:	2024-01-11T10:58:44Z

@<TRIPOS>MOLECULE
propanol_360.sd
   12    11     0 0 0
SMALL
USER_CHARGES


@<TRIPOS>ATOM
      1 H1            0.000000    0.000000    0.000000 H        1 SUBUNIT    0.2100
      2 C2            2.945200    1.441100   -0.000700 C.3      1 SUBUNIT   -0.0327
      3 C3            1.414900    1.350200    0.000000 C.3      1 SUBUNIT    0.0429
      4 O4            0.950000    0.000000    0.000000 O.3      1 SUBUNIT   -0.3962
      5 C5            3.600100    0.263100   -0.731200 C.3      1 SUBUNIT   -0.0632
      6 H6            3.320500   -0.691000   -0.242200 H        1 SUBUNIT    0.0231
      7 H7            3.264700    0.235800   -1.786800 H        1 SUBUNIT    0.0231
      8 H8            4.703000    0.366800   -0.708700 H        1 SUBUNIT    0.0231
      9 H9            3.260100    2.392300   -0.473800 H        1 SUBUNIT    0.0287
     10 H10           3.314900    1.482200    1.043000 H        1 SUBUNIT    0.0287
     11 H11           1.011300    1.881500   -0.884600 H        1 SUBUNIT    0.0563
     12 H12           1.012200    1.881200    0.885100 H        1 SUBUNIT    0.0563
@<TRIPOS>BOND
     1    1    4 1
     2    2    5 1
     3    2    3 1
     4    2    9 1
     5    2   10 1
     6    3    4 1
     7    3   11 1
     8    3   12 1
     9    5    6 1
    10    5    7 1
    11    5    8 1
@<SCITEGIC>ATOM_PROPERTY
Formal Charge
SciTegic.value.StringValue
1 0
2 0
3 0
4 0
5 0
6 0
7 0
8 0
9 0
10 0
11 0
12 0

@<SCITEGIC>ATOM_PROPERTY
pdb_tempFactor
SciTegic.value.DoubleValue
1 0.00
2 0.00
3 0.00
4 0.00
5 0.00
6 0.00
7 0.00
8 0.00
9 0.00
10 0.00
11 0.00
12 0.00

@<SCITEGIC>ATOM_PROPERTY
pdb_occupancy
SciTegic.value.DoubleValue
1 1.00
2 1.00
3 1.00
4 1.00
5 1.00
6 1.00
7 1.00
8 1.00
9 1.00
10 1.00
11 1.00
12 1.00

#	copyright 2023 drugdesign.org
#	Creation time:	2024-01-11T10:58:44Z

@<TRIPOS>MOLECULE
propanol_360.sd
   12    11     0 0 0
SMALL
USER_CHARGES


@<TRIPOS>ATOM
      1 H1            0.000000    0.000000    0.000000 H        1 SUBUNIT    0.2100
      2 C2            2.945200    1.441100   -0.000700 C.3      1 SUBUNIT   -0.0327
      3 C3            1.414900    1.350200    0.000000 C.3      1 SUBUNIT    0.0429
      4 O4            0.950000    0.000000    0.000000 O.3      1 SUBUNIT   -0.3962
      5 C5            3.599300    0.276000   -0.752200 C.3      1 SUBUNIT   -0.0632
      6 H6            3.320200   -0.686500   -0.279700 H        1 SUBUNIT    0.0231
      7 H7            3.262900    0.267100   -1.807900 H        1 SUBUNIT    0.0231
      8 H8            4.702200    0.379300   -0.729200 H        1 SUBUNIT    0.0231
      9 H9            3.259600    2.400400   -0.457500 H        1 SUBUNIT    0.0287
     10 H10           3.315900    1.464000    1.043200 H        1 SUBUNIT    0.0287
     11 H11           1.011300    1.881500   -0.884600 H        1 SUBUNIT    0.0563
     12 H12           1.012200    1.881200    0.885100 H        1 SUBUNIT    0.0563
@<TRIPOS>BOND
     1    1    4 1
     2    2    5 1
     3    2    3 1
     4    2    9 1
     5    2   10 1
     6    3    4 1
     7    3   11 1
     8    3   12 1
     9    5    6 1
    10    5    7 1
    11    5    8 1
@<SCITEGIC>ATOM_PROPERTY
Formal Charge
SciTegic.value.StringValue
1 0
2 0
3 0
4 0
5 0
6 0
7 0
8 0
9 0
10 0
11 0
12 0

@<SCITEGIC>ATOM_PROPERTY
pdb_tempFactor
SciTegic.value.DoubleValue
1 0.00
2 0.00
3 0.00
4 0.00
5 0.00
6 0.00
7 0.00
8 0.00
9 0.00
10 0.00
11 0.00
12 0.00

@<SCITEGIC>ATOM_PROPERTY
pdb_occupancy
SciTegic.value.DoubleValue
1 1.00
2 1.00
3 1.00
4 1.00
5 1.00
6 1.00
7 1.00
8 1.00
9 1.00
10 1.00
11 1.00
12 1.00

#	copyright 2023 drugdesign.org
#	Creation time:	2024-01-11T10:58:44Z

@<TRIPOS>MOLECULE
propanol_360.sd
   12    11     0 0 0
SMALL
USER_CHARGES


@<TRIPOS>ATOM
      1 H1            0.000000    0.000000    0.000000 H        1 SUBUNIT    0.2100
      2 C2            2.945200    1.441100   -0.000700 C.3      1 SUBUNIT   -0.0327
      3 C3            1.414900    1.350200    0.000000 C.3      1 SUBUNIT    0.0429
      4 O4            0.950000    0.000000    0.000000 O.3      1 SUBUNIT   -0.3962
      5 C5            3.598500    0.289300   -0.773100 C.3      1 SUBUNIT   -0.0632
      6 H6            3.319900   -0.681300   -0.317100 H        1 SUBUNIT    0.0231
      7 H7            3.261000    0.298800   -1.828400 H        1 SUBUNIT    0.0231
      8 H8            4.701500    0.392200   -0.749400 H        1 SUBUNIT    0.0231
      9 H9            3.259200    2.408200   -0.441000 H        1 SUBUNIT    0.0287
     10 H10           3.317000    1.445800    1.043100 H        1 SUBUNIT    0.0287
     11 H11           1.011300    1.881500   -0.884600 H        1 SUBUNIT    0.0563
     12 H12           1.012200    1.881200    0.885100 H        1 SUBUNIT    0.0563
@<TRIPOS>BOND
     1    1    4 1
     2    2    5 1
     3    2    3 1
     4    2    9 1
     5    2   10 1
     6    3    4 1
     7    3   11 1
     8    3   12 1
     9    5    6 1
    10    5    7 1
    11    5    8 1
@<SCITEGIC>ATOM_PROPERTY
Formal Charge
SciTegic.value.StringValue
1 0
2 0
3 0
4 0
5 0
6 0
7 0
8 0
9 0
10 0
11 0
12 0

@<SCITEGIC>ATOM_PROPERTY
pdb_tempFactor
SciTegic.value.DoubleValue
1 0.00
2 0.00
3 0.00
4 0.00
5 0.00
6 0.00
7 0.00
8 0.00
9 0.00
10 0.00
11 0.00
12 0.00

@<SCITEGIC>ATOM_PROPERTY
pdb_occupancy
SciTegic.value.DoubleValue
1 1.00
2 1.00
3 1.00
4 1.00
5 1.00
6 1.00
7 1.00
8 1.00
9 1.00
10 1.00
11 1.00
12 1.00

#	copyright 2023 drugdesign.org
#	Creation time:	2024-01-11T10:58:44Z

@<TRIPOS>MOLECULE
propanol_360.sd
   12    11     0 0 0
SMALL
USER_CHARGES


@<TRIPOS>ATOM
      1 H1            0.000000    0.000000    0.000000 H        1 SUBUNIT    0.2100
      2 C2            2.945200    1.441100   -0.000700 C.3      1 SUBUNIT   -0.0327
      3 C3            1.414900    1.350200    0.000000 C.3      1 SUBUNIT    0.0429
      4 O4            0.950000    0.000000    0.000000 O.3      1 SUBUNIT   -0.3962
      5 C5            3.597700    0.302900   -0.793700 C.3      1 SUBUNIT   -0.0632
      6 H6            3.319500   -0.675500   -0.354400 H        1 SUBUNIT    0.0231
      7 H7            3.259100    0.330800   -1.848300 H        1 SUBUNIT    0.0231
      8 H8            4.700700    0.405400   -0.769400 H        1 SUBUNIT    0.0231
      9 H9            3.258700    2.415700   -0.424400 H        1 SUBUNIT    0.0287
     10 H10           3.318100    1.427600    1.042600 H        1 SUBUNIT    0.0287
     11 H11           1.011300    1.881500   -0.884600 H        1 SUBUNIT    0.0563
     12 H12           1.012200    1.881200    0.885100 H        1 SUBUNIT    0.0563
@<TRIPOS>BOND
     1    1    4 1
     2    2    5 1
     3    2    3 1
     4    2    9 1
     5    2   10 1
     6    3    4 1
     7    3   11 1
     8    3   12 1
     9    5    6 1
    10    5    7 1
    11    5    8 1
@<SCITEGIC>ATOM_PROPERTY
Formal Charge
SciTegic.value.StringValue
1 0
2 0
3 0
4 0
5 0
6 0
7 0
8 0
9 0
10 0
11 0
12 0

@<SCITEGIC>ATOM_PROPERTY
pdb_tempFactor
SciTegic.value.DoubleValue
1 0.00
2 0.00
3 0.00
4 0.00
5 0.00
6 0.00
7 0.00
8 0.00
9 0.00
10 0.00
11 0.00
12 0.00

@<SCITEGIC>ATOM_PROPERTY
pdb_occupancy
SciTegic.value.DoubleValue
1 1.00
2 1.00
3 1.00
4 1.00
5 1.00
6 1.00
7 1.00
8 1.00
9 1.00
10 1.00
11 1.00
12 1.00

#	copyright 2023 drugdesign.org
#	Creation time:	2024-01-11T10:58:44Z

@<TRIPOS>MOLECULE
propanol_360.sd
   12    11     0 0 0
SMALL
USER_CHARGES


@<TRIPOS>ATOM
      1 H1            0.000000    0.000000    0.000000 H        1 SUBUNIT    0.2100
      2 C2            2.945200    1.441100   -0.000700 C.3      1 SUBUNIT   -0.0327
      3 C3            1.414900    1.350200    0.000000 C.3      1 SUBUNIT    0.0429
      4 O4            0.950000    0.000000    0.000000 O.3      1 SUBUNIT   -0.3962
      5 C5            3.596800    0.316900   -0.814100 C.3      1 SUBUNIT   -0.0632
      6 H6            3.319100   -0.669000   -0.391600 H        1 SUBUNIT    0.0231
      7 H7            3.257100    0.363100   -1.867700 H        1 SUBUNIT    0.0231
      8 H8            4.699900    0.418900   -0.789100 H        1 SUBUNIT    0.0231
      9 H9            3.258300    2.422900   -0.407700 H        1 SUBUNIT    0.0287
     10 H10           3.319200    1.409400    1.041800 H        1 SUBUNIT    0.0287
     11 H11           1.011300    1.881500   -0.884600 H        1 SUBUNIT    0.0563
     12 H12           1.012200    1.881200    0.885100 H        1 SUBUNIT    0.0563
@<TRIPOS>BOND
     1    1    4 1
     2    2    5 1
     3    2    3 1
     4    2    9 1
     5    2   10 1
     6    3    4 1
     7    3   11 1
     8    3   12 1
     9    5    6 1
    10    5    7 1
    11    5    8 1
@<SCITEGIC>ATOM_PROPERTY
Formal Charge
SciTegic.value.StringValue
1 0
2 0
3 0
4 0
5 0
6 0
7 0
8 0
9 0
10 0
11 0
12 0

@<SCITEGIC>ATOM_PROPERTY
pdb_tempFactor
SciTegic.value.DoubleValue
1 0.00
2 0.00
3 0.00
4 0.00
5 0.00
6 0.00
7 0.00
8 0.00
9 0.00
10 0.00
11 0.00
12 0.00

@<SCITEGIC>ATOM_PROPERTY
pdb_occupancy
SciTegic.value.DoubleValue
1 1.00
2 1.00
3 1.00
4 1.00
5 1.00
6 1.00
7 1.00
8 1.00
9 1.00
10 1.00
11 1.00
12 1.00

#	copyright 2023 drugdesign.org
#	Creation time:	2024-01-11T10:58:44Z

@<TRIPOS>MOLECULE
propanol_360.sd
   12    11     0 0 0
SMALL
USER_CHARGES


@<TRIPOS>ATOM
      1 H1            0.000000    0.000000    0.000000 H        1 SUBUNIT    0.2100
      2 C2            2.945200    1.441100   -0.000700 C.3      1 SUBUNIT   -0.0327
      3 C3            1.414900    1.350200    0.000000 C.3      1 SUBUNIT    0.0429
      4 O4            0.950000    0.000000    0.000000 O.3      1 SUBUNIT   -0.3962
      5 C5            3.596000    0.331300   -0.834200 C.3      1 SUBUNIT   -0.0632
      6 H6            3.318700   -0.661900   -0.428700 H        1 SUBUNIT    0.0231
      7 H7            3.255200    0.395800   -1.886600 H        1 SUBUNIT    0.0231
      8 H8            4.699000    0.432800   -0.808600 H        1 SUBUNIT    0.0231
      9 H9            3.257900    2.429900   -0.390800 H        1 SUBUNIT    0.0287
     10 H10           3.320300    1.391300    1.040700 H        1 SUBUNIT    0.0287
     11 H11           1.011300    1.881500   -0.884600 H        1 SUBUNIT    0.0563
     12 H12           1.012200    1.881200    0.885100 H        1 SUBUNIT    0.0563
@<TRIPOS>BOND
     1    1    4 1
     2    2    5 1
     3    2    3 1
     4    2    9 1
     5    2   10 1
     6    3    4 1
     7    3   11 1
     8    3   12 1
     9    5    6 1
    10    5    7 1
    11    5    8 1
@<SCITEGIC>ATOM_PROPERTY
Formal Charge
SciTegic.value.StringValue
1 0
2 0
3 0
4 0
5 0
6 0
7 0
8 0
9 0
10 0
11 0
12 0

@<SCITEGIC>ATOM_PROPERTY
pdb_tempFactor
SciTegic.value.DoubleValue
1 0.00
2 0.00
3 0.00
4 0.00
5 0.00
6 0.00
7 0.00
8 0.00
9 0.00
10 0.00
11 0.00
12 0.00

@<SCITEGIC>ATOM_PROPERTY
pdb_occupancy
SciTegic.value.DoubleValue
1 1.00
2 1.00
3 1.00
4 1.00
5 1.00
6 1.00
7 1.00
8 1.00
9 1.00
10 1.00
11 1.00
12 1.00

#	copyright 2023 drugdesign.org
#	Creation time:	2024-01-11T10:58:44Z

@<TRIPOS>MOLECULE
propanol_360.sd
   12    11     0 0 0
SMALL
USER_CHARGES


@<TRIPOS>ATOM
      1 H1            0.000000    0.000000    0.000000 H        1 SUBUNIT    0.2100
      2 C2            2.945200    1.441100   -0.000700 C.3      1 SUBUNIT   -0.0327
      3 C3            1.414900    1.350200    0.000000 C.3      1 SUBUNIT    0.0429
      4 O4            0.950000    0.000000    0.000000 O.3      1 SUBUNIT   -0.3962
      5 C5            3.595100    0.346000   -0.854100 C.3      1 SUBUNIT   -0.0632
      6 H6            3.318200   -0.654100   -0.465700 H        1 SUBUNIT    0.0231
      7 H7            3.253200    0.428800   -1.904800 H        1 SUBUNIT    0.0231
      8 H8            4.698200    0.447100   -0.827900 H        1 SUBUNIT    0.0231
      9 H9            3.257500    2.436500   -0.373900 H        1 SUBUNIT    0.0287
     10 H10           3.321300    1.373100    1.039300 H        1 SUBUNIT    0.0287
     11 H11           1.011300    1.881500   -0.884600 H        1 SUBUNIT    0.0563
     12 H12           1.012200    1.881200    0.885100 H        1 SUBUNIT    0.0563
@<TRIPOS>BOND
     1    1    4 1
     2    2    5 1
     3    2    3 1
     4    2    9 1
     5    2   10 1
     6    3    4 1
     7    3   11 1
     8    3   12 1
     9    5    6 1
    10    5    7 1
    11    5    8 1
@<SCITEGIC>ATOM_PROPERTY
Formal Charge
SciTegic.value.StringValue
1 0
2 0
3 0
4 0
5 0
6 0
7 0
8 0
9 0
10 0
11 0
12 0

@<SCITEGIC>ATOM_PROPERTY
pdb_tempFactor
SciTegic.value.DoubleValue
1 0.00
2 0.00
3 0.00
4 0.00
5 0.00
6 0.00
7 0.00
8 0.00
9 0.00
10 0.00
11 0.00
12 0.00

@<SCITEGIC>ATOM_PROPERTY
pdb_occupancy
SciTegic.value.DoubleValue
1 1.00
2 1.00
3 1.00
4 1.00
5 1.00
6 1.00
7 1.00
8 1.00
9 1.00
10 1.00
11 1.00
12 1.00

#	copyright 2023 drugdesign.org
#	Creation time:	2024-01-11T10:58:44Z

@<TRIPOS>MOLECULE
propanol_360.sd
   12    11     0 0 0
SMALL
USER_CHARGES


@<TRIPOS>ATOM
      1 H1            0.000000    0.000000    0.000000 H        1 SUBUNIT    0.2100
      2 C2            2.945200    1.441100   -0.000700 C.3      1 SUBUNIT   -0.0327
      3 C3            1.414900    1.350200    0.000000 C.3      1 SUBUNIT    0.0429
      4 O4            0.950000    0.000000    0.000000 O.3      1 SUBUNIT   -0.3962
      5 C5            3.594200    0.361000   -0.873800 C.3      1 SUBUNIT   -0.0632
      6 H6            3.317700   -0.645700   -0.502500 H        1 SUBUNIT    0.0231
      7 H7            3.251200    0.462200   -1.922500 H        1 SUBUNIT    0.0231
      8 H8            4.697300    0.461600   -0.846900 H        1 SUBUNIT    0.0231
      9 H9            3.257100    2.442900   -0.356800 H        1 SUBUNIT    0.0287
     10 H10           3.322400    1.355000    1.037600 H        1 SUBUNIT    0.0287
     11 H11           1.011300    1.881500   -0.884600 H        1 SUBUNIT    0.0563
     12 H12           1.012200    1.881200    0.885100 H        1 SUBUNIT    0.0563
@<TRIPOS>BOND
     1    1    4 1
     2    2    5 1
     3    2    3 1
     4    2    9 1
     5    2   10 1
     6    3    4 1
     7    3   11 1
     8    3   12 1
     9    5    6 1
    10    5    7 1
    11    5    8 1
@<SCITEGIC>ATOM_PROPERTY
Formal Charge
SciTegic.value.StringValue
1 0
2 0
3 0
4 0
5 0
6 0
7 0
8 0
9 0
10 0
11 0
12 0

@<SCITEGIC>ATOM_PROPERTY
pdb_tempFactor
SciTegic.value.DoubleValue
1 0.00
2 0.00
3 0.00
4 0.00
5 0.00
6 0.00
7 0.00
8 0.00
9 0.00
10 0.00
11 0.00
12 0.00

@<SCITEGIC>ATOM_PROPERTY
pdb_occupancy
SciTegic.value.DoubleValue
1 1.00
2 1.00
3 1.00
4 1.00
5 1.00
6 1.00
7 1.00
8 1.00
9 1.00
10 1.00
11 1.00
12 1.00

#	copyright 2023 drugdesign.org
#	Creation time:	2024-01-11T10:58:44Z

@<TRIPOS>MOLECULE
propanol_360.sd
   12    11     0 0 0
SMALL
USER_CHARGES


@<TRIPOS>ATOM
      1 H1            0.000000    0.000000    0.000000 H        1 SUBUNIT    0.2100
      2 C2            2.945200    1.441100   -0.000700 C.3      1 SUBUNIT   -0.0327
      3 C3            1.414900    1.350200    0.000000 C.3      1 SUBUNIT    0.0429
      4 O4            0.950000    0.000000    0.000000 O.3      1 SUBUNIT   -0.3962
      5 C5            3.593300    0.376400   -0.893100 C.3      1 SUBUNIT   -0.0632
      6 H6            3.317100   -0.636600   -0.539200 H        1 SUBUNIT    0.0231
      7 H7            3.249200    0.495800   -1.939500 H        1 SUBUNIT    0.0231
      8 H8            4.696400    0.476500   -0.865600 H        1 SUBUNIT    0.0231
      9 H9            3.256800    2.448900   -0.339600 H        1 SUBUNIT    0.0287
     10 H10           3.323500    1.337000    1.035500 H        1 SUBUNIT    0.0287
     11 H11           1.011300    1.881500   -0.884600 H        1 SUBUNIT    0.0563
     12 H12           1.012200    1.881200    0.885100 H        1 SUBUNIT    0.0563
@<TRIPOS>BOND
     1    1    4 1
     2    2    5 1
     3    2    3 1
     4    2    9 1
     5    2   10 1
     6    3    4 1
     7    3   11 1
     8    3   12 1
     9    5    6 1
    10    5    7 1
    11    5    8 1
@<SCITEGIC>ATOM_PROPERTY
Formal Charge
SciTegic.value.StringValue
1 0
2 0
3 0
4 0
5 0
6 0
7 0
8 0
9 0
10 0
11 0
12 0

@<SCITEGIC>ATOM_PROPERTY
pdb_tempFactor
SciTegic.value.DoubleValue
1 0.00
2 0.00
3 0.00
4 0.00
5 0.00
6 0.00
7 0.00
8 0.00
9 0.00
10 0.00
11 0.00
12 0.00

@<SCITEGIC>ATOM_PROPERTY
pdb_occupancy
SciTegic.value.DoubleValue
1 1.00
2 1.00
3 1.00
4 1.00
5 1.00
6 1.00
7 1.00
8 1.00
9 1.00
10 1.00
11 1.00
12 1.00

#	copyright 2023 drugdesign.org
#	Creation time:	2024-01-11T10:58:44Z

@<TRIPOS>MOLECULE
propanol_360.sd
   12    11     0 0 0
SMALL
USER_CHARGES


@<TRIPOS>ATOM
      1 H1            0.000000    0.000000    0.000000 H        1 SUBUNIT    0.2100
      2 C2            2.945200    1.441100   -0.000700 C.3      1 SUBUNIT   -0.0327
      3 C3            1.414900    1.350200    0.000000 C.3      1 SUBUNIT    0.0429
      4 O4            0.950000    0.000000    0.000000 O.3      1 SUBUNIT   -0.3962
      5 C5            3.592300    0.392100   -0.912200 C.3      1 SUBUNIT   -0.0632
      6 H6            3.316500   -0.626900   -0.575700 H        1 SUBUNIT    0.0231
      7 H7            3.247200    0.529700   -1.956000 H        1 SUBUNIT    0.0231
      8 H8            4.695500    0.491700   -0.884100 H        1 SUBUNIT    0.0231
      9 H9            3.256500    2.454700   -0.322300 H        1 SUBUNIT    0.0287
     10 H10           3.324500    1.318900    1.033200 H        1 SUBUNIT    0.0287
     11 H11           1.011300    1.881500   -0.884600 H        1 SUBUNIT    0.0563
     12 H12           1.012200    1.881200    0.885100 H        1 SUBUNIT    0.0563
@<TRIPOS>BOND
     1    1    4 1
     2    2    5 1
     3    2    3 1
     4    2    9 1
     5    2   10 1
     6    3    4 1
     7    3   11 1
     8    3   12 1
     9    5    6 1
    10    5    7 1
    11    5    8 1
@<SCITEGIC>ATOM_PROPERTY
Formal Charge
SciTegic.value.StringValue
1 0
2 0
3 0
4 0
5 0
6 0
7 0
8 0
9 0
10 0
11 0
12 0

@<SCITEGIC>ATOM_PROPERTY
pdb_tempFactor
SciTegic.value.DoubleValue
1 0.00
2 0.00
3 0.00
4 0.00
5 0.00
6 0.00
7 0.00
8 0.00
9 0.00
10 0.00
11 0.00
12 0.00

@<SCITEGIC>ATOM_PROPERTY
pdb_occupancy
SciTegic.value.DoubleValue
1 1.00
2 1.00
3 1.00
4 1.00
5 1.00
6 1.00
7 1.00
8 1.00
9 1.00
10 1.00
11 1.00
12 1.00

#	copyright 2023 drugdesign.org
#	Creation time:	2024-01-11T10:58:44Z

@<TRIPOS>MOLECULE
propanol_360.sd
   12    11     0 0 0
SMALL
USER_CHARGES


@<TRIPOS>ATOM
      1 H1            0.000000    0.000000    0.000000 H        1 SUBUNIT    0.2100
      2 C2            2.945200    1.441100   -0.000700 C.3      1 SUBUNIT   -0.0327
      3 C3            1.414900    1.350200    0.000000 C.3      1 SUBUNIT    0.0429
      4 O4            0.950000    0.000000    0.000000 O.3      1 SUBUNIT   -0.3962
      5 C5            3.591400    0.408100   -0.931000 C.3      1 SUBUNIT   -0.0632
      6 H6            3.315900   -0.616600   -0.612000 H        1 SUBUNIT    0.0231
      7 H7            3.245200    0.563900   -1.971900 H        1 SUBUNIT    0.0231
      8 H8            4.694600    0.507300   -0.902300 H        1 SUBUNIT    0.0231
      9 H9            3.256100    2.460100   -0.305000 H        1 SUBUNIT    0.0287
     10 H10           3.325600    1.300900    1.030500 H        1 SUBUNIT    0.0287
     11 H11           1.011300    1.881500   -0.884600 H        1 SUBUNIT    0.0563
     12 H12           1.012200    1.881200    0.885100 H        1 SUBUNIT    0.0563
@<TRIPOS>BOND
     1    1    4 1
     2    2    5 1
     3    2    3 1
     4    2    9 1
     5    2   10 1
     6    3    4 1
     7    3   11 1
     8    3   12 1
     9    5    6 1
    10    5    7 1
    11    5    8 1
@<SCITEGIC>ATOM_PROPERTY
Formal Charge
SciTegic.value.StringValue
1 0
2 0
3 0
4 0
5 0
6 0
7 0
8 0
9 0
10 0
11 0
12 0

@<SCITEGIC>ATOM_PROPERTY
pdb_tempFactor
SciTegic.value.DoubleValue
1 0.00
2 0.00
3 0.00
4 0.00
5 0.00
6 0.00
7 0.00
8 0.00
9 0.00
10 0.00
11 0.00
12 0.00

@<SCITEGIC>ATOM_PROPERTY
pdb_occupancy
SciTegic.value.DoubleValue
1 1.00
2 1.00
3 1.00
4 1.00
5 1.00
6 1.00
7 1.00
8 1.00
9 1.00
10 1.00
11 1.00
12 1.00

#	copyright 2023 drugdesign.org
#	Creation time:	2024-01-11T10:58:44Z

@<TRIPOS>MOLECULE
propanol_360.sd
   12    11     0 0 0
SMALL
USER_CHARGES


@<TRIPOS>ATOM
      1 H1            0.000000    0.000000    0.000000 H        1 SUBUNIT    0.2100
      2 C2            2.945200    1.441100   -0.000700 C.3      1 SUBUNIT   -0.0327
      3 C3            1.414900    1.350200    0.000000 C.3      1 SUBUNIT    0.0429
      4 O4            0.950000    0.000000    0.000000 O.3      1 SUBUNIT   -0.3962
      5 C5            3.590400    0.424500   -0.949500 C.3      1 SUBUNIT   -0.0632
      6 H6            3.315200   -0.605600   -0.648100 H        1 SUBUNIT    0.0231
      7 H7            3.243100    0.598400   -1.987200 H        1 SUBUNIT    0.0231
      8 H8            4.693600    0.523100   -0.920300 H        1 SUBUNIT    0.0231
      9 H9            3.255800    2.465300   -0.287500 H        1 SUBUNIT    0.0287
     10 H10           3.326700    1.283000    1.027500 H        1 SUBUNIT    0.0287
     11 H11           1.011300    1.881500   -0.884600 H        1 SUBUNIT    0.0563
     12 H12           1.012200    1.881200    0.885100 H        1 SUBUNIT    0.0563
@<TRIPOS>BOND
     1    1    4 1
     2    2    5 1
     3    2    3 1
     4    2    9 1
     5    2   10 1
     6    3    4 1
     7    3   11 1
     8    3   12 1
     9    5    6 1
    10    5    7 1
    11    5    8 1
@<SCITEGIC>ATOM_PROPERTY
Formal Charge
SciTegic.value.StringValue
1 0
2 0
3 0
4 0
5 0
6 0
7 0
8 0
9 0
10 0
11 0
12 0

@<SCITEGIC>ATOM_PROPERTY
pdb_tempFactor
SciTegic.value.DoubleValue
1 0.00
2 0.00
3 0.00
4 0.00
5 0.00
6 0.00
7 0.00
8 0.00
9 0.00
10 0.00
11 0.00
12 0.00

@<SCITEGIC>ATOM_PROPERTY
pdb_occupancy
SciTegic.value.DoubleValue
1 1.00
2 1.00
3 1.00
4 1.00
5 1.00
6 1.00
7 1.00
8 1.00
9 1.00
10 1.00
11 1.00
12 1.00

#	copyright 2023 drugdesign.org
#	Creation time:	2024-01-11T10:58:44Z

@<TRIPOS>MOLECULE
propanol_360.sd
   12    11     0 0 0
SMALL
USER_CHARGES


@<TRIPOS>ATOM
      1 H1            0.000000    0.000000    0.000000 H        1 SUBUNIT    0.2100
      2 C2            2.945200    1.441100   -0.000700 C.3      1 SUBUNIT   -0.0327
      3 C3            1.414900    1.350200    0.000000 C.3      1 SUBUNIT    0.0429
      4 O4            0.950000    0.000000    0.000000 O.3      1 SUBUNIT   -0.3962
      5 C5            3.589400    0.441200   -0.967800 C.3      1 SUBUNIT   -0.0632
      6 H6            3.314500   -0.594000   -0.684100 H        1 SUBUNIT    0.0231
      7 H7            3.241000    0.633100   -2.001900 H        1 SUBUNIT    0.0231
      8 H8            4.692600    0.539300   -0.937900 H        1 SUBUNIT    0.0231
      9 H9            3.255600    2.470100   -0.269900 H        1 SUBUNIT    0.0287
     10 H10           3.327700    1.265100    1.024200 H        1 SUBUNIT    0.0287
     11 H11           1.011300    1.881500   -0.884600 H        1 SUBUNIT    0.0563
     12 H12           1.012200    1.881200    0.885100 H        1 SUBUNIT    0.0563
@<TRIPOS>BOND
     1    1    4 1
     2    2    5 1
     3    2    3 1
     4    2    9 1
     5    2   10 1
     6    3    4 1
     7    3   11 1
     8    3   12 1
     9    5    6 1
    10    5    7 1
    11    5    8 1
@<SCITEGIC>ATOM_PROPERTY
Formal Charge
SciTegic.value.StringValue
1 0
2 0
3 0
4 0
5 0
6 0
7 0
8 0
9 0
10 0
11 0
12 0

@<SCITEGIC>ATOM_PROPERTY
pdb_tempFactor
SciTegic.value.DoubleValue
1 0.00
2 0.00
3 0.00
4 0.00
5 0.00
6 0.00
7 0.00
8 0.00
9 0.00
10 0.00
11 0.00
12 0.00

@<SCITEGIC>ATOM_PROPERTY
pdb_occupancy
SciTegic.value.DoubleValue
1 1.00
2 1.00
3 1.00
4 1.00
5 1.00
6 1.00
7 1.00
8 1.00
9 1.00
10 1.00
11 1.00
12 1.00

#	copyright 2023 drugdesign.org
#	Creation time:	2024-01-11T10:58:44Z

@<TRIPOS>MOLECULE
propanol_360.sd
   12    11     0 0 0
SMALL
USER_CHARGES


@<TRIPOS>ATOM
      1 H1            0.000000    0.000000    0.000000 H        1 SUBUNIT    0.2100
      2 C2            2.945200    1.441100   -0.000700 C.3      1 SUBUNIT   -0.0327
      3 C3            1.414900    1.350200    0.000000 C.3      1 SUBUNIT    0.0429
      4 O4            0.950000    0.000000    0.000000 O.3      1 SUBUNIT   -0.3962
      5 C5            3.588400    0.458200   -0.985700 C.3      1 SUBUNIT   -0.0632
      6 H6            3.313800   -0.581800   -0.719800 H        1 SUBUNIT    0.0231
      7 H7            3.238900    0.668100   -2.016000 H        1 SUBUNIT    0.0231
      8 H8            4.691700    0.555800   -0.955300 H        1 SUBUNIT    0.0231
      9 H9            3.255300    2.474700   -0.252300 H        1 SUBUNIT    0.0287
     10 H10           3.328800    1.247300    1.020600 H        1 SUBUNIT    0.0287
     11 H11           1.011300    1.881500   -0.884600 H        1 SUBUNIT    0.0563
     12 H12           1.012200    1.881200    0.885100 H        1 SUBUNIT    0.0563
@<TRIPOS>BOND
     1    1    4 1
     2    2    5 1
     3    2    3 1
     4    2    9 1
     5    2   10 1
     6    3    4 1
     7    3   11 1
     8    3   12 1
     9    5    6 1
    10    5    7 1
    11    5    8 1
@<SCITEGIC>ATOM_PROPERTY
Formal Charge
SciTegic.value.StringValue
1 0
2 0
3 0
4 0
5 0
6 0
7 0
8 0
9 0
10 0
11 0
12 0

@<SCITEGIC>ATOM_PROPERTY
pdb_tempFactor
SciTegic.value.DoubleValue
1 0.00
2 0.00
3 0.00
4 0.00
5 0.00
6 0.00
7 0.00
8 0.00
9 0.00
10 0.00
11 0.00
12 0.00

@<SCITEGIC>ATOM_PROPERTY
pdb_occupancy
SciTegic.value.DoubleValue
1 1.00
2 1.00
3 1.00
4 1.00
5 1.00
6 1.00
7 1.00
8 1.00
9 1.00
10 1.00
11 1.00
12 1.00

#	copyright 2023 drugdesign.org
#	Creation time:	2024-01-11T10:58:44Z

@<TRIPOS>MOLECULE
propanol_360.sd
   12    11     0 0 0
SMALL
USER_CHARGES


@<TRIPOS>ATOM
      1 H1            0.000000    0.000000    0.000000 H        1 SUBUNIT    0.2100
      2 C2            2.945200    1.441100   -0.000700 C.3      1 SUBUNIT   -0.0327
      3 C3            1.414900    1.350200    0.000000 C.3      1 SUBUNIT    0.0429
      4 O4            0.950000    0.000000    0.000000 O.3      1 SUBUNIT   -0.3962
      5 C5            3.587300    0.475500   -1.003300 C.3      1 SUBUNIT   -0.0632
      6 H6            3.313000   -0.569000   -0.755300 H        1 SUBUNIT    0.0231
      7 H7            3.236800    0.703300   -2.029400 H        1 SUBUNIT    0.0231
      8 H8            4.690700    0.572500   -0.972400 H        1 SUBUNIT    0.0231
      9 H9            3.255100    2.478900   -0.234500 H        1 SUBUNIT    0.0287
     10 H10           3.329900    1.229500    1.016600 H        1 SUBUNIT    0.0287
     11 H11           1.011300    1.881500   -0.884600 H        1 SUBUNIT    0.0563
     12 H12           1.012200    1.881200    0.885100 H        1 SUBUNIT    0.0563
@<TRIPOS>BOND
     1    1    4 1
     2    2    5 1
     3    2    3 1
     4    2    9 1
     5    2   10 1
     6    3    4 1
     7    3   11 1
     8    3   12 1
     9    5    6 1
    10    5    7 1
    11    5    8 1
@<SCITEGIC>ATOM_PROPERTY
Formal Charge
SciTegic.value.StringValue
1 0
2 0
3 0
4 0
5 0
6 0
7 0
8 0
9 0
10 0
11 0
12 0

@<SCITEGIC>ATOM_PROPERTY
pdb_tempFactor
SciTegic.value.DoubleValue
1 0.00
2 0.00
3 0.00
4 0.00
5 0.00
6 0.00
7 0.00
8 0.00
9 0.00
10 0.00
11 0.00
12 0.00

@<SCITEGIC>ATOM_PROPERTY
pdb_occupancy
SciTegic.value.DoubleValue
1 1.00
2 1.00
3 1.00
4 1.00
5 1.00
6 1.00
7 1.00
8 1.00
9 1.00
10 1.00
11 1.00
12 1.00

#	copyright 2023 drugdesign.org
#	Creation time:	2024-01-11T10:58:44Z

@<TRIPOS>MOLECULE
propanol_360.sd
   12    11     0 0 0
SMALL
USER_CHARGES


@<TRIPOS>ATOM
      1 H1            0.000000    0.000000    0.000000 H        1 SUBUNIT    0.2100
      2 C2            2.945200    1.441100   -0.000700 C.3      1 SUBUNIT   -0.0327
      3 C3            1.414900    1.350200    0.000000 C.3      1 SUBUNIT    0.0429
      4 O4            0.950000    0.000000    0.000000 O.3      1 SUBUNIT   -0.3962
      5 C5            3.586300    0.493100   -1.020700 C.3      1 SUBUNIT   -0.0632
      6 H6            3.312200   -0.555500   -0.790600 H        1 SUBUNIT    0.0231
      7 H7            3.234700    0.738800   -2.042300 H        1 SUBUNIT    0.0231
      8 H8            4.689600    0.589600   -0.989200 H        1 SUBUNIT    0.0231
      9 H9            3.254800    2.482800   -0.216800 H        1 SUBUNIT    0.0287
     10 H10           3.330900    1.211800    1.012400 H        1 SUBUNIT    0.0287
     11 H11           1.011300    1.881500   -0.884600 H        1 SUBUNIT    0.0563
     12 H12           1.012200    1.881200    0.885100 H        1 SUBUNIT    0.0563
@<TRIPOS>BOND
     1    1    4 1
     2    2    5 1
     3    2    3 1
     4    2    9 1
     5    2   10 1
     6    3    4 1
     7    3   11 1
     8    3   12 1
     9    5    6 1
    10    5    7 1
    11    5    8 1
@<SCITEGIC>ATOM_PROPERTY
Formal Charge
SciTegic.value.StringValue
1 0
2 0
3 0
4 0
5 0
6 0
7 0
8 0
9 0
10 0
11 0
12 0

@<SCITEGIC>ATOM_PROPERTY
pdb_tempFactor
SciTegic.value.DoubleValue
1 0.00
2 0.00
3 0.00
4 0.00
5 0.00
6 0.00
7 0.00
8 0.00
9 0.00
10 0.00
11 0.00
12 0.00

@<SCITEGIC>ATOM_PROPERTY
pdb_occupancy
SciTegic.value.DoubleValue
1 1.00
2 1.00
3 1.00
4 1.00
5 1.00
6 1.00
7 1.00
8 1.00
9 1.00
10 1.00
11 1.00
12 1.00

#	copyright 2023 drugdesign.org
#	Creation time:	2024-01-11T10:58:44Z

@<TRIPOS>MOLECULE
propanol_360.sd
   12    11     0 0 0
SMALL
USER_CHARGES


@<TRIPOS>ATOM
      1 H1            0.000000    0.000000    0.000000 H        1 SUBUNIT    0.2100
      2 C2            2.945200    1.441100   -0.000700 C.3      1 SUBUNIT   -0.0327
      3 C3            1.414900    1.350200    0.000000 C.3      1 SUBUNIT    0.0429
      4 O4            0.950000    0.000000    0.000000 O.3      1 SUBUNIT   -0.3962
      5 C5            3.585200    0.511000   -1.037700 C.3      1 SUBUNIT   -0.0632
      6 H6            3.311300   -0.541500   -0.825600 H        1 SUBUNIT    0.0231
      7 H7            3.232600    0.774500   -2.054500 H        1 SUBUNIT    0.0231
      8 H8            4.688600    0.606900   -1.005700 H        1 SUBUNIT    0.0231
      9 H9            3.254600    2.486400   -0.198900 H        1 SUBUNIT    0.0287
     10 H10           3.331900    1.194200    1.007800 H        1 SUBUNIT    0.0287
     11 H11           1.011300    1.881500   -0.884600 H        1 SUBUNIT    0.0563
     12 H12           1.012200    1.881200    0.885100 H        1 SUBUNIT    0.0563
@<TRIPOS>BOND
     1    1    4 1
     2    2    5 1
     3    2    3 1
     4    2    9 1
     5    2   10 1
     6    3    4 1
     7    3   11 1
     8    3   12 1
     9    5    6 1
    10    5    7 1
    11    5    8 1
@<SCITEGIC>ATOM_PROPERTY
Formal Charge
SciTegic.value.StringValue
1 0
2 0
3 0
4 0
5 0
6 0
7 0
8 0
9 0
10 0
11 0
12 0

@<SCITEGIC>ATOM_PROPERTY
pdb_tempFactor
SciTegic.value.DoubleValue
1 0.00
2 0.00
3 0.00
4 0.00
5 0.00
6 0.00
7 0.00
8 0.00
9 0.00
10 0.00
11 0.00
12 0.00

@<SCITEGIC>ATOM_PROPERTY
pdb_occupancy
SciTegic.value.DoubleValue
1 1.00
2 1.00
3 1.00
4 1.00
5 1.00
6 1.00
7 1.00
8 1.00
9 1.00
10 1.00
11 1.00
12 1.00

#	copyright 2023 drugdesign.org
#	Creation time:	2024-01-11T10:58:44Z

@<TRIPOS>MOLECULE
propanol_360.sd
   12    11     0 0 0
SMALL
USER_CHARGES


@<TRIPOS>ATOM
      1 H1            0.000000    0.000000    0.000000 H        1 SUBUNIT    0.2100
      2 C2            2.945200    1.441100   -0.000700 C.3      1 SUBUNIT   -0.0327
      3 C3            1.414900    1.350200    0.000000 C.3      1 SUBUNIT    0.0429
      4 O4            0.950000    0.000000    0.000000 O.3      1 SUBUNIT   -0.3962
      5 C5            3.584100    0.529200   -1.054400 C.3      1 SUBUNIT   -0.0632
      6 H6            3.310500   -0.526800   -0.860400 H        1 SUBUNIT    0.0231
      7 H7            3.230500    0.810400   -2.066100 H        1 SUBUNIT    0.0231
      8 H8            4.687500    0.624600   -1.021800 H        1 SUBUNIT    0.0231
      9 H9            3.254400    2.489700   -0.181000 H        1 SUBUNIT    0.0287
     10 H10           3.333000    1.176700    1.003000 H        1 SUBUNIT    0.0287
     11 H11           1.011300    1.881500   -0.884600 H        1 SUBUNIT    0.0563
     12 H12           1.012200    1.881200    0.885100 H        1 SUBUNIT    0.0563
@<TRIPOS>BOND
     1    1    4 1
     2    2    5 1
     3    2    3 1
     4    2    9 1
     5    2   10 1
     6    3    4 1
     7    3   11 1
     8    3   12 1
     9    5    6 1
    10    5    7 1
    11    5    8 1
@<SCITEGIC>ATOM_PROPERTY
Formal Charge
SciTegic.value.StringValue
1 0
2 0
3 0
4 0
5 0
6 0
7 0
8 0
9 0
10 0
11 0
12 0

@<SCITEGIC>ATOM_PROPERTY
pdb_tempFactor
SciTegic.value.DoubleValue
1 0.00
2 0.00
3 0.00
4 0.00
5 0.00
6 0.00
7 0.00
8 0.00
9 0.00
10 0.00
11 0.00
12 0.00

@<SCITEGIC>ATOM_PROPERTY
pdb_occupancy
SciTegic.value.DoubleValue
1 1.00
2 1.00
3 1.00
4 1.00
5 1.00
6 1.00
7 1.00
8 1.00
9 1.00
10 1.00
11 1.00
12 1.00

#	copyright 2023 drugdesign.org
#	Creation time:	2024-01-11T10:58:44Z

@<TRIPOS>MOLECULE
propanol_360.sd
   12    11     0 0 0
SMALL
USER_CHARGES


@<TRIPOS>ATOM
      1 H1            0.000000    0.000000    0.000000 H        1 SUBUNIT    0.2100
      2 C2            2.945200    1.441100   -0.000700 C.3      1 SUBUNIT   -0.0327
      3 C3            1.414900    1.350200    0.000000 C.3      1 SUBUNIT    0.0429
      4 O4            0.950000    0.000000    0.000000 O.3      1 SUBUNIT   -0.3962
      5 C5            3.583000    0.547700   -1.070800 C.3      1 SUBUNIT   -0.0632
      6 H6            3.309500   -0.511500   -0.895000 H        1 SUBUNIT    0.0231
      7 H7            3.228300    0.846400   -2.077100 H        1 SUBUNIT    0.0231
      8 H8            4.686500    0.642500   -1.037700 H        1 SUBUNIT    0.0231
      9 H9            3.254300    2.492700   -0.163000 H        1 SUBUNIT    0.0287
     10 H10           3.334000    1.159200    0.997800 H        1 SUBUNIT    0.0287
     11 H11           1.011300    1.881500   -0.884600 H        1 SUBUNIT    0.0563
     12 H12           1.012200    1.881200    0.885100 H        1 SUBUNIT    0.0563
@<TRIPOS>BOND
     1    1    4 1
     2    2    5 1
     3    2    3 1
     4    2    9 1
     5    2   10 1
     6    3    4 1
     7    3   11 1
     8    3   12 1
     9    5    6 1
    10    5    7 1
    11    5    8 1
@<SCITEGIC>ATOM_PROPERTY
Formal Charge
SciTegic.value.StringValue
1 0
2 0
3 0
4 0
5 0
6 0
7 0
8 0
9 0
10 0
11 0
12 0

@<SCITEGIC>ATOM_PROPERTY
pdb_tempFactor
SciTegic.value.DoubleValue
1 0.00
2 0.00
3 0.00
4 0.00
5 0.00
6 0.00
7 0.00
8 0.00
9 0.00
10 0.00
11 0.00
12 0.00

@<SCITEGIC>ATOM_PROPERTY
pdb_occupancy
SciTegic.value.DoubleValue
1 1.00
2 1.00
3 1.00
4 1.00
5 1.00
6 1.00
7 1.00
8 1.00
9 1.00
10 1.00
11 1.00
12 1.00

#	copyright 2023 drugdesign.org
#	Creation time:	2024-01-11T10:58:44Z

@<TRIPOS>MOLECULE
propanol_360.sd
   12    11     0 0 0
SMALL
USER_CHARGES


@<TRIPOS>ATOM
      1 H1            0.000000    0.000000    0.000000 H        1 SUBUNIT    0.2100
      2 C2            2.945200    1.441100   -0.000700 C.3      1 SUBUNIT   -0.0327
      3 C3            1.414900    1.350200    0.000000 C.3      1 SUBUNIT    0.0429
      4 O4            0.950000    0.000000    0.000000 O.3      1 SUBUNIT   -0.3962
      5 C5            3.581900    0.566500   -1.086900 C.3      1 SUBUNIT   -0.0632
      6 H6            3.308600   -0.495600   -0.929200 H        1 SUBUNIT    0.0231
      7 H7            3.226200    0.882700   -2.087400 H        1 SUBUNIT    0.0231
      8 H8            4.685400    0.660700   -1.053300 H        1 SUBUNIT    0.0231
      9 H9            3.254100    2.495400   -0.145000 H        1 SUBUNIT    0.0287
     10 H10           3.335000    1.141900    0.992400 H        1 SUBUNIT    0.0287
     11 H11           1.011300    1.881500   -0.884600 H        1 SUBUNIT    0.0563
     12 H12           1.012200    1.881200    0.885100 H        1 SUBUNIT    0.0563
@<TRIPOS>BOND
     1    1    4 1
     2    2    5 1
     3    2    3 1
     4    2    9 1
     5    2   10 1
     6    3    4 1
     7    3   11 1
     8    3   12 1
     9    5    6 1
    10    5    7 1
    11    5    8 1
@<SCITEGIC>ATOM_PROPERTY
Formal Charge
SciTegic.value.StringValue
1 0
2 0
3 0
4 0
5 0
6 0
7 0
8 0
9 0
10 0
11 0
12 0

@<SCITEGIC>ATOM_PROPERTY
pdb_tempFactor
SciTegic.value.DoubleValue
1 0.00
2 0.00
3 0.00
4 0.00
5 0.00
6 0.00
7 0.00
8 0.00
9 0.00
10 0.00
11 0.00
12 0.00

@<SCITEGIC>ATOM_PROPERTY
pdb_occupancy
SciTegic.value.DoubleValue
1 1.00
2 1.00
3 1.00
4 1.00
5 1.00
6 1.00
7 1.00
8 1.00
9 1.00
10 1.00
11 1.00
12 1.00

#	copyright 2023 drugdesign.org
#	Creation time:	2024-01-11T10:58:44Z

@<TRIPOS>MOLECULE
propanol_360.sd
   12    11     0 0 0
SMALL
USER_CHARGES


@<TRIPOS>ATOM
      1 H1            0.000000    0.000000    0.000000 H        1 SUBUNIT    0.2100
      2 C2            2.945200    1.441100   -0.000700 C.3      1 SUBUNIT   -0.0327
      3 C3            1.414900    1.350200    0.000000 C.3      1 SUBUNIT    0.0429
      4 O4            0.950000    0.000000    0.000000 O.3      1 SUBUNIT   -0.3962
      5 C5            3.580800    0.585600   -1.102600 C.3      1 SUBUNIT   -0.0632
      6 H6            3.307600   -0.479200   -0.963200 H        1 SUBUNIT    0.0231
      7 H7            3.224000    0.919100   -2.097100 H        1 SUBUNIT    0.0231
      8 H8            4.684300    0.679100   -1.068500 H        1 SUBUNIT    0.0231
      9 H9            3.254000    2.497700   -0.126900 H        1 SUBUNIT    0.0287
     10 H10           3.336100    1.124600    0.986600 H        1 SUBUNIT    0.0287
     11 H11           1.011300    1.881500   -0.884600 H        1 SUBUNIT    0.0563
     12 H12           1.012200    1.881200    0.885100 H        1 SUBUNIT    0.0563
@<TRIPOS>BOND
     1    1    4 1
     2    2    5 1
     3    2    3 1
     4    2    9 1
     5    2   10 1
     6    3    4 1
     7    3   11 1
     8    3   12 1
     9    5    6 1
    10    5    7 1
    11    5    8 1
@<SCITEGIC>ATOM_PROPERTY
Formal Charge
SciTegic.value.StringValue
1 0
2 0
3 0
4 0
5 0
6 0
7 0
8 0
9 0
10 0
11 0
12 0

@<SCITEGIC>ATOM_PROPERTY
pdb_tempFactor
SciTegic.value.DoubleValue
1 0.00
2 0.00
3 0.00
4 0.00
5 0.00
6 0.00
7 0.00
8 0.00
9 0.00
10 0.00
11 0.00
12 0.00

@<SCITEGIC>ATOM_PROPERTY
pdb_occupancy
SciTegic.value.DoubleValue
1 1.00
2 1.00
3 1.00
4 1.00
5 1.00
6 1.00
7 1.00
8 1.00
9 1.00
10 1.00
11 1.00
12 1.00

#	copyright 2023 drugdesign.org
#	Creation time:	2024-01-11T10:58:44Z

@<TRIPOS>MOLECULE
propanol_360.sd
   12    11     0 0 0
SMALL
USER_CHARGES


@<TRIPOS>ATOM
      1 H1            0.000000    0.000000    0.000000 H        1 SUBUNIT    0.2100
      2 C2            2.945200    1.441100   -0.000700 C.3      1 SUBUNIT   -0.0327
      3 C3            1.414900    1.350200    0.000000 C.3      1 SUBUNIT    0.0429
      4 O4            0.950000    0.000000    0.000000 O.3      1 SUBUNIT   -0.3962
      5 C5            3.579600    0.604900   -1.118000 C.3      1 SUBUNIT   -0.0632
      6 H6            3.306600   -0.462100   -0.996900 H        1 SUBUNIT    0.0231
      7 H7            3.221800    0.955700   -2.106200 H        1 SUBUNIT    0.0231
      8 H8            4.683200    0.697900   -1.083400 H        1 SUBUNIT    0.0231
      9 H9            3.253900    2.499800   -0.108800 H        1 SUBUNIT    0.0287
     10 H10           3.337100    1.107500    0.980500 H        1 SUBUNIT    0.0287
     11 H11           1.011300    1.881500   -0.884600 H        1 SUBUNIT    0.0563
     12 H12           1.012200    1.881200    0.885100 H        1 SUBUNIT    0.0563
@<TRIPOS>BOND
     1    1    4 1
     2    2    5 1
     3    2    3 1
     4    2    9 1
     5    2   10 1
     6    3    4 1
     7    3   11 1
     8    3   12 1
     9    5    6 1
    10    5    7 1
    11    5    8 1
@<SCITEGIC>ATOM_PROPERTY
Formal Charge
SciTegic.value.StringValue
1 0
2 0
3 0
4 0
5 0
6 0
7 0
8 0
9 0
10 0
11 0
12 0

@<SCITEGIC>ATOM_PROPERTY
pdb_tempFactor
SciTegic.value.DoubleValue
1 0.00
2 0.00
3 0.00
4 0.00
5 0.00
6 0.00
7 0.00
8 0.00
9 0.00
10 0.00
11 0.00
12 0.00

@<SCITEGIC>ATOM_PROPERTY
pdb_occupancy
SciTegic.value.DoubleValue
1 1.00
2 1.00
3 1.00
4 1.00
5 1.00
6 1.00
7 1.00
8 1.00
9 1.00
10 1.00
11 1.00
12 1.00

#	copyright 2023 drugdesign.org
#	Creation time:	2024-01-11T10:58:44Z

@<TRIPOS>MOLECULE
propanol_360.sd
   12    11     0 0 0
SMALL
USER_CHARGES


@<TRIPOS>ATOM
      1 H1            0.000000    0.000000    0.000000 H        1 SUBUNIT    0.2100
      2 C2            2.945200    1.441100   -0.000700 C.3      1 SUBUNIT   -0.0327
      3 C3            1.414900    1.350200    0.000000 C.3      1 SUBUNIT    0.0429
      4 O4            0.950000    0.000000    0.000000 O.3      1 SUBUNIT   -0.3962
      5 C5            3.578400    0.624500   -1.133000 C.3      1 SUBUNIT   -0.0632
      6 H6            3.305500   -0.444500   -1.030300 H        1 SUBUNIT    0.0231
      7 H7            3.219600    0.992500   -2.114600 H        1 SUBUNIT    0.0231
      8 H8            4.682000    0.716800   -1.098000 H        1 SUBUNIT    0.0231
      9 H9            3.253800    2.501500   -0.090700 H        1 SUBUNIT    0.0287
     10 H10           3.338100    1.090400    0.974100 H        1 SUBUNIT    0.0287
     11 H11           1.011300    1.881500   -0.884600 H        1 SUBUNIT    0.0563
     12 H12           1.012200    1.881200    0.885100 H        1 SUBUNIT    0.0563
@<TRIPOS>BOND
     1    1    4 1
     2    2    5 1
     3    2    3 1
     4    2    9 1
     5    2   10 1
     6    3    4 1
     7    3   11 1
     8    3   12 1
     9    5    6 1
    10    5    7 1
    11    5    8 1
@<SCITEGIC>ATOM_PROPERTY
Formal Charge
SciTegic.value.StringValue
1 0
2 0
3 0
4 0
5 0
6 0
7 0
8 0
9 0
10 0
11 0
12 0

@<SCITEGIC>ATOM_PROPERTY
pdb_tempFactor
SciTegic.value.DoubleValue
1 0.00
2 0.00
3 0.00
4 0.00
5 0.00
6 0.00
7 0.00
8 0.00
9 0.00
10 0.00
11 0.00
12 0.00

@<SCITEGIC>ATOM_PROPERTY
pdb_occupancy
SciTegic.value.DoubleValue
1 1.00
2 1.00
3 1.00
4 1.00
5 1.00
6 1.00
7 1.00
8 1.00
9 1.00
10 1.00
11 1.00
12 1.00

#	copyright 2023 drugdesign.org
#	Creation time:	2024-01-11T10:58:44Z

@<TRIPOS>MOLECULE
propanol_360.sd
   12    11     0 0 0
SMALL
USER_CHARGES


@<TRIPOS>ATOM
      1 H1            0.000000    0.000000    0.000000 H        1 SUBUNIT    0.2100
      2 C2            2.945200    1.441100   -0.000700 C.3      1 SUBUNIT   -0.0327
      3 C3            1.414900    1.350200    0.000000 C.3      1 SUBUNIT    0.0429
      4 O4            0.950000    0.000000    0.000000 O.3      1 SUBUNIT   -0.3962
      5 C5            3.577200    0.644300   -1.147700 C.3      1 SUBUNIT   -0.0632
      6 H6            3.304400   -0.426200   -1.063300 H        1 SUBUNIT    0.0231
      7 H7            3.217400    1.029400   -2.122400 H        1 SUBUNIT    0.0231
      8 H8            4.680900    0.736100   -1.112300 H        1 SUBUNIT    0.0231
      9 H9            3.253700    2.502900   -0.072500 H        1 SUBUNIT    0.0287
     10 H10           3.339100    1.073500    0.967500 H        1 SUBUNIT    0.0287
     11 H11           1.011300    1.881500   -0.884600 H        1 SUBUNIT    0.0563
     12 H12           1.012200    1.881200    0.885100 H        1 SUBUNIT    0.0563
@<TRIPOS>BOND
     1    1    4 1
     2    2    5 1
     3    2    3 1
     4    2    9 1
     5    2   10 1
     6    3    4 1
     7    3   11 1
     8    3   12 1
     9    5    6 1
    10    5    7 1
    11    5    8 1
@<SCITEGIC>ATOM_PROPERTY
Formal Charge
SciTegic.value.StringValue
1 0
2 0
3 0
4 0
5 0
6 0
7 0
8 0
9 0
10 0
11 0
12 0

@<SCITEGIC>ATOM_PROPERTY
pdb_tempFactor
SciTegic.value.DoubleValue
1 0.00
2 0.00
3 0.00
4 0.00
5 0.00
6 0.00
7 0.00
8 0.00
9 0.00
10 0.00
11 0.00
12 0.00

@<SCITEGIC>ATOM_PROPERTY
pdb_occupancy
SciTegic.value.DoubleValue
1 1.00
2 1.00
3 1.00
4 1.00
5 1.00
6 1.00
7 1.00
8 1.00
9 1.00
10 1.00
11 1.00
12 1.00

#	copyright 2023 drugdesign.org
#	Creation time:	2024-01-11T10:58:44Z

@<TRIPOS>MOLECULE
propanol_360.sd
   12    11     0 0 0
SMALL
USER_CHARGES


@<TRIPOS>ATOM
      1 H1            0.000000    0.000000    0.000000 H        1 SUBUNIT    0.2100
      2 C2            2.945200    1.441100   -0.000700 C.3      1 SUBUNIT   -0.0327
      3 C3            1.414900    1.350200    0.000000 C.3      1 SUBUNIT    0.0429
      4 O4            0.950000    0.000000    0.000000 O.3      1 SUBUNIT   -0.3962
      5 C5            3.576000    0.664400   -1.162100 C.3      1 SUBUNIT   -0.0632
      6 H6            3.303300   -0.407400   -1.096100 H        1 SUBUNIT    0.0231
      7 H7            3.215200    1.066400   -2.129500 H        1 SUBUNIT    0.0231
      8 H8            4.679700    0.755500   -1.126200 H        1 SUBUNIT    0.0231
      9 H9            3.253700    2.504000   -0.054300 H        1 SUBUNIT    0.0287
     10 H10           3.340100    1.056700    0.960500 H        1 SUBUNIT    0.0287
     11 H11           1.011300    1.881500   -0.884600 H        1 SUBUNIT    0.0563
     12 H12           1.012200    1.881200    0.885100 H        1 SUBUNIT    0.0563
@<TRIPOS>BOND
     1    1    4 1
     2    2    5 1
     3    2    3 1
     4    2    9 1
     5    2   10 1
     6    3    4 1
     7    3   11 1
     8    3   12 1
     9    5    6 1
    10    5    7 1
    11    5    8 1
@<SCITEGIC>ATOM_PROPERTY
Formal Charge
SciTegic.value.StringValue
1 0
2 0
3 0
4 0
5 0
6 0
7 0
8 0
9 0
10 0
11 0
12 0

@<SCITEGIC>ATOM_PROPERTY
pdb_tempFactor
SciTegic.value.DoubleValue
1 0.00
2 0.00
3 0.00
4 0.00
5 0.00
6 0.00
7 0.00
8 0.00
9 0.00
10 0.00
11 0.00
12 0.00

@<SCITEGIC>ATOM_PROPERTY
pdb_occupancy
SciTegic.value.DoubleValue
1 1.00
2 1.00
3 1.00
4 1.00
5 1.00
6 1.00
7 1.00
8 1.00
9 1.00
10 1.00
11 1.00
12 1.00

#	copyright 2023 drugdesign.org
#	Creation time:	2024-01-11T10:58:44Z

@<TRIPOS>MOLECULE
propanol_360.sd
   12    11     0 0 0
SMALL
USER_CHARGES


@<TRIPOS>ATOM
      1 H1            0.000000    0.000000    0.000000 H        1 SUBUNIT    0.2100
      2 C2            2.945200    1.441100   -0.000700 C.3      1 SUBUNIT   -0.0327
      3 C3            1.414900    1.350200    0.000000 C.3      1 SUBUNIT    0.0429
      4 O4            0.950000    0.000000    0.000000 O.3      1 SUBUNIT   -0.3962
      5 C5            3.574800    0.684800   -1.176100 C.3      1 SUBUNIT   -0.0632
      6 H6            3.302100   -0.388100   -1.128500 H        1 SUBUNIT    0.0231
      7 H7            3.213000    1.103600   -2.136000 H        1 SUBUNIT    0.0231
      8 H8            4.678500    0.775300   -1.139700 H        1 SUBUNIT    0.0231
      9 H9            3.253600    2.504700   -0.036100 H        1 SUBUNIT    0.0287
     10 H10           3.341100    1.040000    0.953300 H        1 SUBUNIT    0.0287
     11 H11           1.011300    1.881500   -0.884600 H        1 SUBUNIT    0.0563
     12 H12           1.012200    1.881200    0.885100 H        1 SUBUNIT    0.0563
@<TRIPOS>BOND
     1    1    4 1
     2    2    5 1
     3    2    3 1
     4    2    9 1
     5    2   10 1
     6    3    4 1
     7    3   11 1
     8    3   12 1
     9    5    6 1
    10    5    7 1
    11    5    8 1
@<SCITEGIC>ATOM_PROPERTY
Formal Charge
SciTegic.value.StringValue
1 0
2 0
3 0
4 0
5 0
6 0
7 0
8 0
9 0
10 0
11 0
12 0

@<SCITEGIC>ATOM_PROPERTY
pdb_tempFactor
SciTegic.value.DoubleValue
1 0.00
2 0.00
3 0.00
4 0.00
5 0.00
6 0.00
7 0.00
8 0.00
9 0.00
10 0.00
11 0.00
12 0.00

@<SCITEGIC>ATOM_PROPERTY
pdb_occupancy
SciTegic.value.DoubleValue
1 1.00
2 1.00
3 1.00
4 1.00
5 1.00
6 1.00
7 1.00
8 1.00
9 1.00
10 1.00
11 1.00
12 1.00

#	copyright 2023 drugdesign.org
#	Creation time:	2024-01-11T10:58:44Z

@<TRIPOS>MOLECULE
propanol_360.sd
   12    11     0 0 0
SMALL
USER_CHARGES


@<TRIPOS>ATOM
      1 H1            0.000000    0.000000    0.000000 H        1 SUBUNIT    0.2100
      2 C2            2.945200    1.441100   -0.000700 C.3      1 SUBUNIT   -0.0327
      3 C3            1.414900    1.350200    0.000000 C.3      1 SUBUNIT    0.0429
      4 O4            0.950000    0.000000    0.000000 O.3      1 SUBUNIT   -0.3962
      5 C5            3.573600    0.705400   -1.189800 C.3      1 SUBUNIT   -0.0632
      6 H6            3.300900   -0.368100   -1.160500 H        1 SUBUNIT    0.0231
      7 H7            3.210800    1.140800   -2.141800 H        1 SUBUNIT    0.0231
      8 H8            4.677300    0.795200   -1.153000 H        1 SUBUNIT    0.0231
      9 H9            3.253600    2.505200   -0.017900 H        1 SUBUNIT    0.0287
     10 H10           3.342100    1.023400    0.945700 H        1 SUBUNIT    0.0287
     11 H11           1.011300    1.881500   -0.884600 H        1 SUBUNIT    0.0563
     12 H12           1.012200    1.881200    0.885100 H        1 SUBUNIT    0.0563
@<TRIPOS>BOND
     1    1    4 1
     2    2    5 1
     3    2    3 1
     4    2    9 1
     5    2   10 1
     6    3    4 1
     7    3   11 1
     8    3   12 1
     9    5    6 1
    10    5    7 1
    11    5    8 1
@<SCITEGIC>ATOM_PROPERTY
Formal Charge
SciTegic.value.StringValue
1 0
2 0
3 0
4 0
5 0
6 0
7 0
8 0
9 0
10 0
11 0
12 0

@<SCITEGIC>ATOM_PROPERTY
pdb_tempFactor
SciTegic.value.DoubleValue
1 0.00
2 0.00
3 0.00
4 0.00
5 0.00
6 0.00
7 0.00
8 0.00
9 0.00
10 0.00
11 0.00
12 0.00

@<SCITEGIC>ATOM_PROPERTY
pdb_occupancy
SciTegic.value.DoubleValue
1 1.00
2 1.00
3 1.00
4 1.00
5 1.00
6 1.00
7 1.00
8 1.00
9 1.00
10 1.00
11 1.00
12 1.00

#	copyright 2023 drugdesign.org
#	Creation time:	2024-01-11T10:58:44Z

@<TRIPOS>MOLECULE
propanol_360.sd
   12    11     0 0 0
SMALL
USER_CHARGES


@<TRIPOS>ATOM
      1 H1            0.000000    0.000000    0.000000 H        1 SUBUNIT    0.2100
      2 C2            2.945200    1.441100   -0.000700 C.3      1 SUBUNIT   -0.0327
      3 C3            1.414900    1.350200    0.000000 C.3      1 SUBUNIT    0.0429
      4 O4            0.950000    0.000000    0.000000 O.3      1 SUBUNIT   -0.3962
      5 C5            3.572400    0.726200   -1.203000 C.3      1 SUBUNIT   -0.0632
      6 H6            3.299700   -0.347700   -1.192300 H        1 SUBUNIT    0.0231
      7 H7            3.208600    1.178200   -2.147000 H        1 SUBUNIT    0.0231
      8 H8            4.676100    0.815400   -1.165800 H        1 SUBUNIT    0.0231
      9 H9            3.253600    2.505300    0.000300 H        1 SUBUNIT    0.0287
     10 H10           3.343000    1.007000    0.937900 H        1 SUBUNIT    0.0287
     11 H11           1.011300    1.881500   -0.884600 H        1 SUBUNIT    0.0563
     12 H12           1.012200    1.881200    0.885100 H        1 SUBUNIT    0.0563
@<TRIPOS>BOND
     1    1    4 1
     2    2    5 1
     3    2    3 1
     4    2    9 1
     5    2   10 1
     6    3    4 1
     7    3   11 1
     8    3   12 1
     9    5    6 1
    10    5    7 1
    11    5    8 1
@<SCITEGIC>ATOM_PROPERTY
Formal Charge
SciTegic.value.StringValue
1 0
2 0
3 0
4 0
5 0
6 0
7 0
8 0
9 0
10 0
11 0
12 0

@<SCITEGIC>ATOM_PROPERTY
pdb_tempFactor
SciTegic.value.DoubleValue
1 0.00
2 0.00
3 0.00
4 0.00
5 0.00
6 0.00
7 0.00
8 0.00
9 0.00
10 0.00
11 0.00
12 0.00

@<SCITEGIC>ATOM_PROPERTY
pdb_occupancy
SciTegic.value.DoubleValue
1 1.00
2 1.00
3 1.00
4 1.00
5 1.00
6 1.00
7 1.00
8 1.00
9 1.00
10 1.00
11 1.00
12 1.00

#	copyright 2023 drugdesign.org
#	Creation time:	2024-01-11T10:58:44Z

@<TRIPOS>MOLECULE
propanol_360.sd
   12    11     0 0 0
SMALL
USER_CHARGES


@<TRIPOS>ATOM
      1 H1            0.000000    0.000000    0.000000 H        1 SUBUNIT    0.2100
      2 C2            2.945200    1.441100   -0.000700 C.3      1 SUBUNIT   -0.0327
      3 C3            1.414900    1.350200    0.000000 C.3      1 SUBUNIT    0.0429
      4 O4            0.950000    0.000000    0.000000 O.3      1 SUBUNIT   -0.3962
      5 C5            3.571100    0.747300   -1.216000 C.3      1 SUBUNIT   -0.0632
      6 H6            3.298400   -0.326600   -1.223600 H        1 SUBUNIT    0.0231
      7 H7            3.206400    1.215600   -2.151500 H        1 SUBUNIT    0.0231
      8 H8            4.674900    0.835800   -1.178300 H        1 SUBUNIT    0.0231
      9 H9            3.253600    2.505200    0.018600 H        1 SUBUNIT    0.0287
     10 H10           3.344000    0.990700    0.929800 H        1 SUBUNIT    0.0287
     11 H11           1.011300    1.881500   -0.884600 H        1 SUBUNIT    0.0563
     12 H12           1.012200    1.881200    0.885100 H        1 SUBUNIT    0.0563
@<TRIPOS>BOND
     1    1    4 1
     2    2    5 1
     3    2    3 1
     4    2    9 1
     5    2   10 1
     6    3    4 1
     7    3   11 1
     8    3   12 1
     9    5    6 1
    10    5    7 1
    11    5    8 1
@<SCITEGIC>ATOM_PROPERTY
Formal Charge
SciTegic.value.StringValue
1 0
2 0
3 0
4 0
5 0
6 0
7 0
8 0
9 0
10 0
11 0
12 0

@<SCITEGIC>ATOM_PROPERTY
pdb_tempFactor
SciTegic.value.DoubleValue
1 0.00
2 0.00
3 0.00
4 0.00
5 0.00
6 0.00
7 0.00
8 0.00
9 0.00
10 0.00
11 0.00
12 0.00

@<SCITEGIC>ATOM_PROPERTY
pdb_occupancy
SciTegic.value.DoubleValue
1 1.00
2 1.00
3 1.00
4 1.00
5 1.00
6 1.00
7 1.00
8 1.00
9 1.00
10 1.00
11 1.00
12 1.00

#	copyright 2023 drugdesign.org
#	Creation time:	2024-01-11T10:58:44Z

@<TRIPOS>MOLECULE
propanol_360.sd
   12    11     0 0 0
SMALL
USER_CHARGES


@<TRIPOS>ATOM
      1 H1            0.000000    0.000000    0.000000 H        1 SUBUNIT    0.2100
      2 C2            2.945200    1.441100   -0.000700 C.3      1 SUBUNIT   -0.0327
      3 C3            1.414900    1.350200    0.000000 C.3      1 SUBUNIT    0.0429
      4 O4            0.950000    0.000000    0.000000 O.3      1 SUBUNIT   -0.3962
      5 C5            3.569800    0.768500   -1.228500 C.3      1 SUBUNIT   -0.0632
      6 H6            3.297100   -0.305100   -1.254600 H        1 SUBUNIT    0.0231
      7 H7            3.204100    1.253100   -2.155400 H        1 SUBUNIT    0.0231
      8 H8            4.673700    0.856400   -1.190500 H        1 SUBUNIT    0.0231
      9 H9            3.253700    2.504700    0.036800 H        1 SUBUNIT    0.0287
     10 H10           3.345000    0.974600    0.921400 H        1 SUBUNIT    0.0287
     11 H11           1.011300    1.881500   -0.884600 H        1 SUBUNIT    0.0563
     12 H12           1.012200    1.881200    0.885100 H        1 SUBUNIT    0.0563
@<TRIPOS>BOND
     1    1    4 1
     2    2    5 1
     3    2    3 1
     4    2    9 1
     5    2   10 1
     6    3    4 1
     7    3   11 1
     8    3   12 1
     9    5    6 1
    10    5    7 1
    11    5    8 1
@<SCITEGIC>ATOM_PROPERTY
Formal Charge
SciTegic.value.StringValue
1 0
2 0
3 0
4 0
5 0
6 0
7 0
8 0
9 0
10 0
11 0
12 0

@<SCITEGIC>ATOM_PROPERTY
pdb_tempFactor
SciTegic.value.DoubleValue
1 0.00
2 0.00
3 0.00
4 0.00
5 0.00
6 0.00
7 0.00
8 0.00
9 0.00
10 0.00
11 0.00
12 0.00

@<SCITEGIC>ATOM_PROPERTY
pdb_occupancy
SciTegic.value.DoubleValue
1 1.00
2 1.00
3 1.00
4 1.00
5 1.00
6 1.00
7 1.00
8 1.00
9 1.00
10 1.00
11 1.00
12 1.00

#	copyright 2023 drugdesign.org
#	Creation time:	2024-01-11T10:58:44Z

@<TRIPOS>MOLECULE
propanol_360.sd
   12    11     0 0 0
SMALL
USER_CHARGES


@<TRIPOS>ATOM
      1 H1            0.000000    0.000000    0.000000 H        1 SUBUNIT    0.2100
      2 C2            2.945200    1.441100   -0.000700 C.3      1 SUBUNIT   -0.0327
      3 C3            1.414900    1.350200    0.000000 C.3      1 SUBUNIT    0.0429
      4 O4            0.950000    0.000000    0.000000 O.3      1 SUBUNIT   -0.3962
      5 C5            3.568500    0.790000   -1.240700 C.3      1 SUBUNIT   -0.0632
      6 H6            3.295800   -0.282900   -1.285200 H        1 SUBUNIT    0.0231
      7 H7            3.201900    1.290700   -2.158600 H        1 SUBUNIT    0.0231
      8 H8            4.672400    0.877200   -1.202300 H        1 SUBUNIT    0.0231
      9 H9            3.253700    2.503800    0.055000 H        1 SUBUNIT    0.0287
     10 H10           3.345900    0.958600    0.912700 H        1 SUBUNIT    0.0287
     11 H11           1.011300    1.881500   -0.884600 H        1 SUBUNIT    0.0563
     12 H12           1.012200    1.881200    0.885100 H        1 SUBUNIT    0.0563
@<TRIPOS>BOND
     1    1    4 1
     2    2    5 1
     3    2    3 1
     4    2    9 1
     5    2   10 1
     6    3    4 1
     7    3   11 1
     8    3   12 1
     9    5    6 1
    10    5    7 1
    11    5    8 1
@<SCITEGIC>ATOM_PROPERTY
Formal Charge
SciTegic.value.StringValue
1 0
2 0
3 0
4 0
5 0
6 0
7 0
8 0
9 0
10 0
11 0
12 0

@<SCITEGIC>ATOM_PROPERTY
pdb_tempFactor
SciTegic.value.DoubleValue
1 0.00
2 0.00
3 0.00
4 0.00
5 0.00
6 0.00
7 0.00
8 0.00
9 0.00
10 0.00
11 0.00
12 0.00

@<SCITEGIC>ATOM_PROPERTY
pdb_occupancy
SciTegic.value.DoubleValue
1 1.00
2 1.00
3 1.00
4 1.00
5 1.00
6 1.00
7 1.00
8 1.00
9 1.00
10 1.00
11 1.00
12 1.00

#	copyright 2023 drugdesign.org
#	Creation time:	2024-01-11T10:58:44Z

@<TRIPOS>MOLECULE
propanol_360.sd
   12    11     0 0 0
SMALL
USER_CHARGES


@<TRIPOS>ATOM
      1 H1            0.000000    0.000000    0.000000 H        1 SUBUNIT    0.2100
      2 C2            2.945200    1.441100   -0.000700 C.3      1 SUBUNIT   -0.0327
      3 C3            1.414900    1.350200    0.000000 C.3      1 SUBUNIT    0.0429
      4 O4            0.950000    0.000000    0.000000 O.3      1 SUBUNIT   -0.3962
      5 C5            3.567300    0.811700   -1.252500 C.3      1 SUBUNIT   -0.0632
      6 H6            3.294400   -0.260300   -1.315400 H        1 SUBUNIT    0.0231
      7 H7            3.199700    1.328300   -2.161200 H        1 SUBUNIT    0.0231
      8 H8            4.671200    0.898200   -1.213700 H        1 SUBUNIT    0.0231
      9 H9            3.253800    2.502700    0.073200 H        1 SUBUNIT    0.0287
     10 H10           3.346800    0.942700    0.903700 H        1 SUBUNIT    0.0287
     11 H11           1.011300    1.881500   -0.884600 H        1 SUBUNIT    0.0563
     12 H12           1.012200    1.881200    0.885100 H        1 SUBUNIT    0.0563
@<TRIPOS>BOND
     1    1    4 1
     2    2    5 1
     3    2    3 1
     4    2    9 1
     5    2   10 1
     6    3    4 1
     7    3   11 1
     8    3   12 1
     9    5    6 1
    10    5    7 1
    11    5    8 1
@<SCITEGIC>ATOM_PROPERTY
Formal Charge
SciTegic.value.StringValue
1 0
2 0
3 0
4 0
5 0
6 0
7 0
8 0
9 0
10 0
11 0
12 0

@<SCITEGIC>ATOM_PROPERTY
pdb_tempFactor
SciTegic.value.DoubleValue
1 0.00
2 0.00
3 0.00
4 0.00
5 0.00
6 0.00
7 0.00
8 0.00
9 0.00
10 0.00
11 0.00
12 0.00

@<SCITEGIC>ATOM_PROPERTY
pdb_occupancy
SciTegic.value.DoubleValue
1 1.00
2 1.00
3 1.00
4 1.00
5 1.00
6 1.00
7 1.00
8 1.00
9 1.00
10 1.00
11 1.00
12 1.00

#	copyright 2023 drugdesign.org
#	Creation time:	2024-01-11T10:58:44Z

@<TRIPOS>MOLECULE
propanol_360.sd
   12    11     0 0 0
SMALL
USER_CHARGES


@<TRIPOS>ATOM
      1 H1            0.000000    0.000000    0.000000 H        1 SUBUNIT    0.2100
      2 C2            2.945200    1.441100   -0.000700 C.3      1 SUBUNIT   -0.0327
      3 C3            1.414900    1.350200    0.000000 C.3      1 SUBUNIT    0.0429
      4 O4            0.950000    0.000000    0.000000 O.3      1 SUBUNIT   -0.3962
      5 C5            3.565900    0.833600   -1.263900 C.3      1 SUBUNIT   -0.0632
      6 H6            3.293000   -0.237100   -1.345200 H        1 SUBUNIT    0.0231
      7 H7            3.197400    1.365900   -2.163100 H        1 SUBUNIT    0.0231
      8 H8            4.669900    0.919400   -1.224800 H        1 SUBUNIT    0.0231
      9 H9            3.253900    2.501300    0.091300 H        1 SUBUNIT    0.0287
     10 H10           3.347800    0.927100    0.894500 H        1 SUBUNIT    0.0287
     11 H11           1.011300    1.881500   -0.884600 H        1 SUBUNIT    0.0563
     12 H12           1.012200    1.881200    0.885100 H        1 SUBUNIT    0.0563
@<TRIPOS>BOND
     1    1    4 1
     2    2    5 1
     3    2    3 1
     4    2    9 1
     5    2   10 1
     6    3    4 1
     7    3   11 1
     8    3   12 1
     9    5    6 1
    10    5    7 1
    11    5    8 1
@<SCITEGIC>ATOM_PROPERTY
Formal Charge
SciTegic.value.StringValue
1 0
2 0
3 0
4 0
5 0
6 0
7 0
8 0
9 0
10 0
11 0
12 0

@<SCITEGIC>ATOM_PROPERTY
pdb_tempFactor
SciTegic.value.DoubleValue
1 0.00
2 0.00
3 0.00
4 0.00
5 0.00
6 0.00
7 0.00
8 0.00
9 0.00
10 0.00
11 0.00
12 0.00

@<SCITEGIC>ATOM_PROPERTY
pdb_occupancy
SciTegic.value.DoubleValue
1 1.00
2 1.00
3 1.00
4 1.00
5 1.00
6 1.00
7 1.00
8 1.00
9 1.00
10 1.00
11 1.00
12 1.00

#	copyright 2023 drugdesign.org
#	Creation time:	2024-01-11T10:58:44Z

@<TRIPOS>MOLECULE
propanol_360.sd
   12    11     0 0 0
SMALL
USER_CHARGES


@<TRIPOS>ATOM
      1 H1            0.000000    0.000000    0.000000 H        1 SUBUNIT    0.2100
      2 C2            2.945200    1.441100   -0.000700 C.3      1 SUBUNIT   -0.0327
      3 C3            1.414900    1.350200    0.000000 C.3      1 SUBUNIT    0.0429
      4 O4            0.950000    0.000000    0.000000 O.3      1 SUBUNIT   -0.3962
      5 C5            3.564600    0.855700   -1.274900 C.3      1 SUBUNIT   -0.0632
      6 H6            3.291600   -0.213500   -1.374600 H        1 SUBUNIT    0.0231
      7 H7            3.195200    1.403600   -2.164300 H        1 SUBUNIT    0.0231
      8 H8            4.668600    0.940900   -1.235500 H        1 SUBUNIT    0.0231
      9 H9            3.254000    2.499500    0.109500 H        1 SUBUNIT    0.0287
     10 H10           3.348700    0.911600    0.885000 H        1 SUBUNIT    0.0287
     11 H11           1.011300    1.881500   -0.884600 H        1 SUBUNIT    0.0563
     12 H12           1.012200    1.881200    0.885100 H        1 SUBUNIT    0.0563
@<TRIPOS>BOND
     1    1    4 1
     2    2    5 1
     3    2    3 1
     4    2    9 1
     5    2   10 1
     6    3    4 1
     7    3   11 1
     8    3   12 1
     9    5    6 1
    10    5    7 1
    11    5    8 1
@<SCITEGIC>ATOM_PROPERTY
Formal Charge
SciTegic.value.StringValue
1 0
2 0
3 0
4 0
5 0
6 0
7 0
8 0
9 0
10 0
11 0
12 0

@<SCITEGIC>ATOM_PROPERTY
pdb_tempFactor
SciTegic.value.DoubleValue
1 0.00
2 0.00
3 0.00
4 0.00
5 0.00
6 0.00
7 0.00
8 0.00
9 0.00
10 0.00
11 0.00
12 0.00

@<SCITEGIC>ATOM_PROPERTY
pdb_occupancy
SciTegic.value.DoubleValue
1 1.00
2 1.00
3 1.00
4 1.00
5 1.00
6 1.00
7 1.00
8 1.00
9 1.00
10 1.00
11 1.00
12 1.00

#	copyright 2023 drugdesign.org
#	Creation time:	2024-01-11T10:58:44Z

@<TRIPOS>MOLECULE
propanol_360.sd
   12    11     0 0 0
SMALL
USER_CHARGES


@<TRIPOS>ATOM
      1 H1            0.000000    0.000000    0.000000 H        1 SUBUNIT    0.2100
      2 C2            2.945200    1.441100   -0.000700 C.3      1 SUBUNIT   -0.0327
      3 C3            1.414900    1.350200    0.000000 C.3      1 SUBUNIT    0.0429
      4 O4            0.950000    0.000000    0.000000 O.3      1 SUBUNIT   -0.3962
      5 C5            3.563300    0.878000   -1.285600 C.3      1 SUBUNIT   -0.0632
      6 H6            3.290200   -0.189300   -1.403500 H        1 SUBUNIT    0.0231
      7 H7            3.192900    1.441300   -2.164900 H        1 SUBUNIT    0.0231
      8 H8            4.667400    0.962400   -1.245800 H        1 SUBUNIT    0.0231
      9 H9            3.254100    2.497400    0.127600 H        1 SUBUNIT    0.0287
     10 H10           3.349600    0.896200    0.875200 H        1 SUBUNIT    0.0287
     11 H11           1.011300    1.881500   -0.884600 H        1 SUBUNIT    0.0563
     12 H12           1.012200    1.881200    0.885100 H        1 SUBUNIT    0.0563
@<TRIPOS>BOND
     1    1    4 1
     2    2    5 1
     3    2    3 1
     4    2    9 1
     5    2   10 1
     6    3    4 1
     7    3   11 1
     8    3   12 1
     9    5    6 1
    10    5    7 1
    11    5    8 1
@<SCITEGIC>ATOM_PROPERTY
Formal Charge
SciTegic.value.StringValue
1 0
2 0
3 0
4 0
5 0
6 0
7 0
8 0
9 0
10 0
11 0
12 0

@<SCITEGIC>ATOM_PROPERTY
pdb_tempFactor
SciTegic.value.DoubleValue
1 0.00
2 0.00
3 0.00
4 0.00
5 0.00
6 0.00
7 0.00
8 0.00
9 0.00
10 0.00
11 0.00
12 0.00

@<SCITEGIC>ATOM_PROPERTY
pdb_occupancy
SciTegic.value.DoubleValue
1 1.00
2 1.00
3 1.00
4 1.00
5 1.00
6 1.00
7 1.00
8 1.00
9 1.00
10 1.00
11 1.00
12 1.00

#	copyright 2023 drugdesign.org
#	Creation time:	2024-01-11T10:58:44Z

@<TRIPOS>MOLECULE
propanol_360.sd
   12    11     0 0 0
SMALL
USER_CHARGES


@<TRIPOS>ATOM
      1 H1            0.000000    0.000000    0.000000 H        1 SUBUNIT    0.2100
      2 C2            2.945200    1.441100   -0.000700 C.3      1 SUBUNIT   -0.0327
      3 C3            1.414900    1.350200    0.000000 C.3      1 SUBUNIT    0.0429
      4 O4            0.950000    0.000000    0.000000 O.3      1 SUBUNIT   -0.3962
      5 C5            3.562000    0.900500   -1.295800 C.3      1 SUBUNIT   -0.0632
      6 H6            3.288700   -0.164600   -1.432100 H        1 SUBUNIT    0.0231
      7 H7            3.190700    1.479000   -2.164800 H        1 SUBUNIT    0.0231
      8 H8            4.666100    0.984200   -1.255700 H        1 SUBUNIT    0.0231
      9 H9            3.254300    2.495000    0.145600 H        1 SUBUNIT    0.0287
     10 H10           3.350500    0.881000    0.865200 H        1 SUBUNIT    0.0287
     11 H11           1.011300    1.881500   -0.884600 H        1 SUBUNIT    0.0563
     12 H12           1.012200    1.881200    0.885100 H        1 SUBUNIT    0.0563
@<TRIPOS>BOND
     1    1    4 1
     2    2    5 1
     3    2    3 1
     4    2    9 1
     5    2   10 1
     6    3    4 1
     7    3   11 1
     8    3   12 1
     9    5    6 1
    10    5    7 1
    11    5    8 1
@<SCITEGIC>ATOM_PROPERTY
Formal Charge
SciTegic.value.StringValue
1 0
2 0
3 0
4 0
5 0
6 0
7 0
8 0
9 0
10 0
11 0
12 0

@<SCITEGIC>ATOM_PROPERTY
pdb_tempFactor
SciTegic.value.DoubleValue
1 0.00
2 0.00
3 0.00
4 0.00
5 0.00
6 0.00
7 0.00
8 0.00
9 0.00
10 0.00
11 0.00
12 0.00

@<SCITEGIC>ATOM_PROPERTY
pdb_occupancy
SciTegic.value.DoubleValue
1 1.00
2 1.00
3 1.00
4 1.00
5 1.00
6 1.00
7 1.00
8 1.00
9 1.00
10 1.00
11 1.00
12 1.00

#	copyright 2023 drugdesign.org
#	Creation time:	2024-01-11T10:58:44Z

@<TRIPOS>MOLECULE
propanol_360.sd
   12    11     0 0 0
SMALL
USER_CHARGES


@<TRIPOS>ATOM
      1 H1            0.000000    0.000000    0.000000 H        1 SUBUNIT    0.2100
      2 C2            2.945200    1.441100   -0.000700 C.3      1 SUBUNIT   -0.0327
      3 C3            1.414900    1.350200    0.000000 C.3      1 SUBUNIT    0.0429
      4 O4            0.950000    0.000000    0.000000 O.3      1 SUBUNIT   -0.3962
      5 C5            3.560600    0.923100   -1.305700 C.3      1 SUBUNIT   -0.0632
      6 H6            3.287200   -0.139400   -1.460200 H        1 SUBUNIT    0.0231
      7 H7            3.188500    1.516700   -2.164100 H        1 SUBUNIT    0.0231
      8 H8            4.664800    1.006100   -1.265300 H        1 SUBUNIT    0.0231
      9 H9            3.254400    2.492300    0.163700 H        1 SUBUNIT    0.0287
     10 H10           3.351400    0.866000    0.854900 H        1 SUBUNIT    0.0287
     11 H11           1.011300    1.881500   -0.884600 H        1 SUBUNIT    0.0563
     12 H12           1.012200    1.881200    0.885100 H        1 SUBUNIT    0.0563
@<TRIPOS>BOND
     1    1    4 1
     2    2    5 1
     3    2    3 1
     4    2    9 1
     5    2   10 1
     6    3    4 1
     7    3   11 1
     8    3   12 1
     9    5    6 1
    10    5    7 1
    11    5    8 1
@<SCITEGIC>ATOM_PROPERTY
Formal Charge
SciTegic.value.StringValue
1 0
2 0
3 0
4 0
5 0
6 0
7 0
8 0
9 0
10 0
11 0
12 0

@<SCITEGIC>ATOM_PROPERTY
pdb_tempFactor
SciTegic.value.DoubleValue
1 0.00
2 0.00
3 0.00
4 0.00
5 0.00
6 0.00
7 0.00
8 0.00
9 0.00
10 0.00
11 0.00
12 0.00

@<SCITEGIC>ATOM_PROPERTY
pdb_occupancy
SciTegic.value.DoubleValue
1 1.00
2 1.00
3 1.00
4 1.00
5 1.00
6 1.00
7 1.00
8 1.00
9 1.00
10 1.00
11 1.00
12 1.00

#	copyright 2023 drugdesign.org
#	Creation time:	2024-01-11T10:58:44Z

@<TRIPOS>MOLECULE
propanol_360.sd
   12    11     0 0 0
SMALL
USER_CHARGES


@<TRIPOS>ATOM
      1 H1            0.000000    0.000000    0.000000 H        1 SUBUNIT    0.2100
      2 C2            2.945200    1.441100   -0.000700 C.3      1 SUBUNIT   -0.0327
      3 C3            1.414900    1.350200    0.000000 C.3      1 SUBUNIT    0.0429
      4 O4            0.950000    0.000000    0.000000 O.3      1 SUBUNIT   -0.3962
      5 C5            3.559200    0.946000   -1.315200 C.3      1 SUBUNIT   -0.0632
      6 H6            3.285600   -0.113700   -1.487900 H        1 SUBUNIT    0.0231
      7 H7            3.186200    1.554400   -2.162700 H        1 SUBUNIT    0.0231
      8 H8            4.663400    1.028200   -1.274400 H        1 SUBUNIT    0.0231
      9 H9            3.254600    2.489300    0.181600 H        1 SUBUNIT    0.0287
     10 H10           3.352300    0.851200    0.844300 H        1 SUBUNIT    0.0287
     11 H11           1.011300    1.881500   -0.884600 H        1 SUBUNIT    0.0563
     12 H12           1.012200    1.881200    0.885100 H        1 SUBUNIT    0.0563
@<TRIPOS>BOND
     1    1    4 1
     2    2    5 1
     3    2    3 1
     4    2    9 1
     5    2   10 1
     6    3    4 1
     7    3   11 1
     8    3   12 1
     9    5    6 1
    10    5    7 1
    11    5    8 1
@<SCITEGIC>ATOM_PROPERTY
Formal Charge
SciTegic.value.StringValue
1 0
2 0
3 0
4 0
5 0
6 0
7 0
8 0
9 0
10 0
11 0
12 0

@<SCITEGIC>ATOM_PROPERTY
pdb_tempFactor
SciTegic.value.DoubleValue
1 0.00
2 0.00
3 0.00
4 0.00
5 0.00
6 0.00
7 0.00
8 0.00
9 0.00
10 0.00
11 0.00
12 0.00

@<SCITEGIC>ATOM_PROPERTY
pdb_occupancy
SciTegic.value.DoubleValue
1 1.00
2 1.00
3 1.00
4 1.00
5 1.00
6 1.00
7 1.00
8 1.00
9 1.00
10 1.00
11 1.00
12 1.00

#	copyright 2023 drugdesign.org
#	Creation time:	2024-01-11T10:58:44Z

@<TRIPOS>MOLECULE
propanol_360.sd
   12    11     0 0 0
SMALL
USER_CHARGES


@<TRIPOS>ATOM
      1 H1            0.000000    0.000000    0.000000 H        1 SUBUNIT    0.2100
      2 C2            2.945200    1.441100   -0.000700 C.3      1 SUBUNIT   -0.0327
      3 C3            1.414900    1.350200    0.000000 C.3      1 SUBUNIT    0.0429
      4 O4            0.950000    0.000000    0.000000 O.3      1 SUBUNIT   -0.3962
      5 C5            3.557900    0.968900   -1.324200 C.3      1 SUBUNIT   -0.0632
      6 H6            3.284100   -0.087600   -1.515100 H        1 SUBUNIT    0.0231
      7 H7            3.184000    1.592100   -2.160600 H        1 SUBUNIT    0.0231
      8 H8            4.662100    1.050500   -1.283200 H        1 SUBUNIT    0.0231
      9 H9            3.254800    2.486000    0.199500 H        1 SUBUNIT    0.0287
     10 H10           3.353100    0.836600    0.833500 H        1 SUBUNIT    0.0287
     11 H11           1.011300    1.881500   -0.884600 H        1 SUBUNIT    0.0563
     12 H12           1.012200    1.881200    0.885100 H        1 SUBUNIT    0.0563
@<TRIPOS>BOND
     1    1    4 1
     2    2    5 1
     3    2    3 1
     4    2    9 1
     5    2   10 1
     6    3    4 1
     7    3   11 1
     8    3   12 1
     9    5    6 1
    10    5    7 1
    11    5    8 1
@<SCITEGIC>ATOM_PROPERTY
Formal Charge
SciTegic.value.StringValue
1 0
2 0
3 0
4 0
5 0
6 0
7 0
8 0
9 0
10 0
11 0
12 0

@<SCITEGIC>ATOM_PROPERTY
pdb_tempFactor
SciTegic.value.DoubleValue
1 0.00
2 0.00
3 0.00
4 0.00
5 0.00
6 0.00
7 0.00
8 0.00
9 0.00
10 0.00
11 0.00
12 0.00

@<SCITEGIC>ATOM_PROPERTY
pdb_occupancy
SciTegic.value.DoubleValue
1 1.00
2 1.00
3 1.00
4 1.00
5 1.00
6 1.00
7 1.00
8 1.00
9 1.00
10 1.00
11 1.00
12 1.00

#	copyright 2023 drugdesign.org
#	Creation time:	2024-01-11T10:58:44Z

@<TRIPOS>MOLECULE
propanol_360.sd
   12    11     0 0 0
SMALL
USER_CHARGES


@<TRIPOS>ATOM
      1 H1            0.000000    0.000000    0.000000 H        1 SUBUNIT    0.2100
      2 C2            2.945200    1.441100   -0.000700 C.3      1 SUBUNIT   -0.0327
      3 C3            1.414900    1.350200    0.000000 C.3      1 SUBUNIT    0.0429
      4 O4            0.950000    0.000000    0.000000 O.3      1 SUBUNIT   -0.3962
      5 C5            3.556500    0.992100   -1.332900 C.3      1 SUBUNIT   -0.0632
      6 H6            3.282500   -0.061000   -1.541800 H        1 SUBUNIT    0.0231
      7 H7            3.181800    1.629700   -2.157900 H        1 SUBUNIT    0.0231
      8 H8            4.660800    1.072900   -1.291600 H        1 SUBUNIT    0.0231
      9 H9            3.255100    2.482300    0.217400 H        1 SUBUNIT    0.0287
     10 H10           3.354000    0.822100    0.822400 H        1 SUBUNIT    0.0287
     11 H11           1.011300    1.881500   -0.884600 H        1 SUBUNIT    0.0563
     12 H12           1.012200    1.881200    0.885100 H        1 SUBUNIT    0.0563
@<TRIPOS>BOND
     1    1    4 1
     2    2    5 1
     3    2    3 1
     4    2    9 1
     5    2   10 1
     6    3    4 1
     7    3   11 1
     8    3   12 1
     9    5    6 1
    10    5    7 1
    11    5    8 1
@<SCITEGIC>ATOM_PROPERTY
Formal Charge
SciTegic.value.StringValue
1 0
2 0
3 0
4 0
5 0
6 0
7 0
8 0
9 0
10 0
11 0
12 0

@<SCITEGIC>ATOM_PROPERTY
pdb_tempFactor
SciTegic.value.DoubleValue
1 0.00
2 0.00
3 0.00
4 0.00
5 0.00
6 0.00
7 0.00
8 0.00
9 0.00
10 0.00
11 0.00
12 0.00

@<SCITEGIC>ATOM_PROPERTY
pdb_occupancy
SciTegic.value.DoubleValue
1 1.00
2 1.00
3 1.00
4 1.00
5 1.00
6 1.00
7 1.00
8 1.00
9 1.00
10 1.00
11 1.00
12 1.00

#	copyright 2023 drugdesign.org
#	Creation time:	2024-01-11T10:58:44Z

@<TRIPOS>MOLECULE
propanol_360.sd
   12    11     0 0 0
SMALL
USER_CHARGES


@<TRIPOS>ATOM
      1 H1            0.000000    0.000000    0.000000 H        1 SUBUNIT    0.2100
      2 C2            2.945200    1.441100   -0.000700 C.3      1 SUBUNIT   -0.0327
      3 C3            1.414900    1.350200    0.000000 C.3      1 SUBUNIT    0.0429
      4 O4            0.950000    0.000000    0.000000 O.3      1 SUBUNIT   -0.3962
      5 C5            3.555100    1.015300   -1.341100 C.3      1 SUBUNIT   -0.0632
      6 H6            3.280900   -0.033900   -1.568100 H        1 SUBUNIT    0.0231
      7 H7            3.179500    1.667200   -2.154600 H        1 SUBUNIT    0.0231
      8 H8            4.659400    1.095500   -1.299600 H        1 SUBUNIT    0.0231
      9 H9            3.255300    2.478400    0.235200 H        1 SUBUNIT    0.0287
     10 H10           3.354800    0.807900    0.811000 H        1 SUBUNIT    0.0287
     11 H11           1.011300    1.881500   -0.884600 H        1 SUBUNIT    0.0563
     12 H12           1.012200    1.881200    0.885100 H        1 SUBUNIT    0.0563
@<TRIPOS>BOND
     1    1    4 1
     2    2    5 1
     3    2    3 1
     4    2    9 1
     5    2   10 1
     6    3    4 1
     7    3   11 1
     8    3   12 1
     9    5    6 1
    10    5    7 1
    11    5    8 1
@<SCITEGIC>ATOM_PROPERTY
Formal Charge
SciTegic.value.StringValue
1 0
2 0
3 0
4 0
5 0
6 0
7 0
8 0
9 0
10 0
11 0
12 0

@<SCITEGIC>ATOM_PROPERTY
pdb_tempFactor
SciTegic.value.DoubleValue
1 0.00
2 0.00
3 0.00
4 0.00
5 0.00
6 0.00
7 0.00
8 0.00
9 0.00
10 0.00
11 0.00
12 0.00

@<SCITEGIC>ATOM_PROPERTY
pdb_occupancy
SciTegic.value.DoubleValue
1 1.00
2 1.00
3 1.00
4 1.00
5 1.00
6 1.00
7 1.00
8 1.00
9 1.00
10 1.00
11 1.00
12 1.00

#	copyright 2023 drugdesign.org
#	Creation time:	2024-01-11T10:58:44Z

@<TRIPOS>MOLECULE
propanol_360.sd
   12    11     0 0 0
SMALL
USER_CHARGES


@<TRIPOS>ATOM
      1 H1            0.000000    0.000000    0.000000 H        1 SUBUNIT    0.2100
      2 C2            2.945200    1.441100   -0.000700 C.3      1 SUBUNIT   -0.0327
      3 C3            1.414900    1.350200    0.000000 C.3      1 SUBUNIT    0.0429
      4 O4            0.950000    0.000000    0.000000 O.3      1 SUBUNIT   -0.3962
      5 C5            3.553700    1.038800   -1.349000 C.3      1 SUBUNIT   -0.0632
      6 H6            3.279200   -0.006400   -1.593900 H        1 SUBUNIT    0.0231
      7 H7            3.177300    1.704700   -2.150500 H        1 SUBUNIT    0.0231
      8 H8            4.658100    1.118100   -1.307200 H        1 SUBUNIT    0.0231
      9 H9            3.255600    2.474100    0.252900 H        1 SUBUNIT    0.0287
     10 H10           3.355600    0.793800    0.799500 H        1 SUBUNIT    0.0287
     11 H11           1.011300    1.881500   -0.884600 H        1 SUBUNIT    0.0563
     12 H12           1.012200    1.881200    0.885100 H        1 SUBUNIT    0.0563
@<TRIPOS>BOND
     1    1    4 1
     2    2    5 1
     3    2    3 1
     4    2    9 1
     5    2   10 1
     6    3    4 1
     7    3   11 1
     8    3   12 1
     9    5    6 1
    10    5    7 1
    11    5    8 1
@<SCITEGIC>ATOM_PROPERTY
Formal Charge
SciTegic.value.StringValue
1 0
2 0
3 0
4 0
5 0
6 0
7 0
8 0
9 0
10 0
11 0
12 0

@<SCITEGIC>ATOM_PROPERTY
pdb_tempFactor
SciTegic.value.DoubleValue
1 0.00
2 0.00
3 0.00
4 0.00
5 0.00
6 0.00
7 0.00
8 0.00
9 0.00
10 0.00
11 0.00
12 0.00

@<SCITEGIC>ATOM_PROPERTY
pdb_occupancy
SciTegic.value.DoubleValue
1 1.00
2 1.00
3 1.00
4 1.00
5 1.00
6 1.00
7 1.00
8 1.00
9 1.00
10 1.00
11 1.00
12 1.00

#	copyright 2023 drugdesign.org
#	Creation time:	2024-01-11T10:58:44Z

@<TRIPOS>MOLECULE
propanol_360.sd
   12    11     0 0 0
SMALL
USER_CHARGES


@<TRIPOS>ATOM
      1 H1            0.000000    0.000000    0.000000 H        1 SUBUNIT    0.2100
      2 C2            2.945200    1.441100   -0.000700 C.3      1 SUBUNIT   -0.0327
      3 C3            1.414900    1.350200    0.000000 C.3      1 SUBUNIT    0.0429
      4 O4            0.950000    0.000000    0.000000 O.3      1 SUBUNIT   -0.3962
      5 C5            3.552300    1.062300   -1.356400 C.3      1 SUBUNIT   -0.0632
      6 H6            3.277500    0.021600   -1.619200 H        1 SUBUNIT    0.0231
      7 H7            3.175100    1.742100   -2.145900 H        1 SUBUNIT    0.0231
      8 H8            4.656700    1.140900   -1.314400 H        1 SUBUNIT    0.0231
      9 H9            3.255800    2.469500    0.270500 H        1 SUBUNIT    0.0287
     10 H10           3.356500    0.780000    0.787600 H        1 SUBUNIT    0.0287
     11 H11           1.011300    1.881500   -0.884600 H        1 SUBUNIT    0.0563
     12 H12           1.012200    1.881200    0.885100 H        1 SUBUNIT    0.0563
@<TRIPOS>BOND
     1    1    4 1
     2    2    5 1
     3    2    3 1
     4    2    9 1
     5    2   10 1
     6    3    4 1
     7    3   11 1
     8    3   12 1
     9    5    6 1
    10    5    7 1
    11    5    8 1
@<SCITEGIC>ATOM_PROPERTY
Formal Charge
SciTegic.value.StringValue
1 0
2 0
3 0
4 0
5 0
6 0
7 0
8 0
9 0
10 0
11 0
12 0

@<SCITEGIC>ATOM_PROPERTY
pdb_tempFactor
SciTegic.value.DoubleValue
1 0.00
2 0.00
3 0.00
4 0.00
5 0.00
6 0.00
7 0.00
8 0.00
9 0.00
10 0.00
11 0.00
12 0.00

@<SCITEGIC>ATOM_PROPERTY
pdb_occupancy
SciTegic.value.DoubleValue
1 1.00
2 1.00
3 1.00
4 1.00
5 1.00
6 1.00
7 1.00
8 1.00
9 1.00
10 1.00
11 1.00
12 1.00

#	copyright 2023 drugdesign.org
#	Creation time:	2024-01-11T10:58:44Z

@<TRIPOS>MOLECULE
propanol_360.sd
   12    11     0 0 0
SMALL
USER_CHARGES


@<TRIPOS>ATOM
      1 H1            0.000000    0.000000    0.000000 H        1 SUBUNIT    0.2100
      2 C2            2.945200    1.441100   -0.000700 C.3      1 SUBUNIT   -0.0327
      3 C3            1.414900    1.350200    0.000000 C.3      1 SUBUNIT    0.0429
      4 O4            0.950000    0.000000    0.000000 O.3      1 SUBUNIT   -0.3962
      5 C5            3.550900    1.086000   -1.363400 C.3      1 SUBUNIT   -0.0632
      6 H6            3.275800    0.050000   -1.644100 H        1 SUBUNIT    0.0231
      7 H7            3.172900    1.779500   -2.140500 H        1 SUBUNIT    0.0231
      8 H8            4.655400    1.163900   -1.321200 H        1 SUBUNIT    0.0231
      9 H9            3.256100    2.464600    0.288100 H        1 SUBUNIT    0.0287
     10 H10           3.357300    0.766400    0.775600 H        1 SUBUNIT    0.0287
     11 H11           1.011300    1.881500   -0.884600 H        1 SUBUNIT    0.0563
     12 H12           1.012200    1.881200    0.885100 H        1 SUBUNIT    0.0563
@<TRIPOS>BOND
     1    1    4 1
     2    2    5 1
     3    2    3 1
     4    2    9 1
     5    2   10 1
     6    3    4 1
     7    3   11 1
     8    3   12 1
     9    5    6 1
    10    5    7 1
    11    5    8 1
@<SCITEGIC>ATOM_PROPERTY
Formal Charge
SciTegic.value.StringValue
1 0
2 0
3 0
4 0
5 0
6 0
7 0
8 0
9 0
10 0
11 0
12 0

@<SCITEGIC>ATOM_PROPERTY
pdb_tempFactor
SciTegic.value.DoubleValue
1 0.00
2 0.00
3 0.00
4 0.00
5 0.00
6 0.00
7 0.00
8 0.00
9 0.00
10 0.00
11 0.00
12 0.00

@<SCITEGIC>ATOM_PROPERTY
pdb_occupancy
SciTegic.value.DoubleValue
1 1.00
2 1.00
3 1.00
4 1.00
5 1.00
6 1.00
7 1.00
8 1.00
9 1.00
10 1.00
11 1.00
12 1.00

#	copyright 2023 drugdesign.org
#	Creation time:	2024-01-11T10:58:44Z

@<TRIPOS>MOLECULE
propanol_360.sd
   12    11     0 0 0
SMALL
USER_CHARGES


@<TRIPOS>ATOM
      1 H1            0.000000    0.000000    0.000000 H        1 SUBUNIT    0.2100
      2 C2            2.945200    1.441100   -0.000700 C.3      1 SUBUNIT   -0.0327
      3 C3            1.414900    1.350200    0.000000 C.3      1 SUBUNIT    0.0429
      4 O4            0.950000    0.000000    0.000000 O.3      1 SUBUNIT   -0.3962
      5 C5            3.549500    1.109800   -1.370000 C.3      1 SUBUNIT   -0.0632
      6 H6            3.274100    0.078900   -1.668400 H        1 SUBUNIT    0.0231
      7 H7            3.170700    1.816700   -2.134500 H        1 SUBUNIT    0.0231
      8 H8            4.654000    1.186900   -1.327600 H        1 SUBUNIT    0.0231
      9 H9            3.256500    2.459500    0.305500 H        1 SUBUNIT    0.0287
     10 H10           3.358100    0.753000    0.763300 H        1 SUBUNIT    0.0287
     11 H11           1.011300    1.881500   -0.884600 H        1 SUBUNIT    0.0563
     12 H12           1.012200    1.881200    0.885100 H        1 SUBUNIT    0.0563
@<TRIPOS>BOND
     1    1    4 1
     2    2    5 1
     3    2    3 1
     4    2    9 1
     5    2   10 1
     6    3    4 1
     7    3   11 1
     8    3   12 1
     9    5    6 1
    10    5    7 1
    11    5    8 1
@<SCITEGIC>ATOM_PROPERTY
Formal Charge
SciTegic.value.StringValue
1 0
2 0
3 0
4 0
5 0
6 0
7 0
8 0
9 0
10 0
11 0
12 0

@<SCITEGIC>ATOM_PROPERTY
pdb_tempFactor
SciTegic.value.DoubleValue
1 0.00
2 0.00
3 0.00
4 0.00
5 0.00
6 0.00
7 0.00
8 0.00
9 0.00
10 0.00
11 0.00
12 0.00

@<SCITEGIC>ATOM_PROPERTY
pdb_occupancy
SciTegic.value.DoubleValue
1 1.00
2 1.00
3 1.00
4 1.00
5 1.00
6 1.00
7 1.00
8 1.00
9 1.00
10 1.00
11 1.00
12 1.00

#	copyright 2023 drugdesign.org
#	Creation time:	2024-01-11T10:58:44Z

@<TRIPOS>MOLECULE
propanol_360.sd
   12    11     0 0 0
SMALL
USER_CHARGES


@<TRIPOS>ATOM
      1 H1            0.000000    0.000000    0.000000 H        1 SUBUNIT    0.2100
      2 C2            2.945200    1.441100   -0.000700 C.3      1 SUBUNIT   -0.0327
      3 C3            1.414900    1.350200    0.000000 C.3      1 SUBUNIT    0.0429
      4 O4            0.950000    0.000000    0.000000 O.3      1 SUBUNIT   -0.3962
      5 C5            3.548100    1.133700   -1.376200 C.3      1 SUBUNIT   -0.0632
      6 H6            3.272400    0.108100   -1.692200 H        1 SUBUNIT    0.0231
      7 H7            3.168500    1.853800   -2.127900 H        1 SUBUNIT    0.0231
      8 H8            4.652600    1.210100   -1.333600 H        1 SUBUNIT    0.0231
      9 H9            3.256800    2.454000    0.322900 H        1 SUBUNIT    0.0287
     10 H10           3.358800    0.739700    0.750700 H        1 SUBUNIT    0.0287
     11 H11           1.011300    1.881500   -0.884600 H        1 SUBUNIT    0.0563
     12 H12           1.012200    1.881200    0.885100 H        1 SUBUNIT    0.0563
@<TRIPOS>BOND
     1    1    4 1
     2    2    5 1
     3    2    3 1
     4    2    9 1
     5    2   10 1
     6    3    4 1
     7    3   11 1
     8    3   12 1
     9    5    6 1
    10    5    7 1
    11    5    8 1
@<SCITEGIC>ATOM_PROPERTY
Formal Charge
SciTegic.value.StringValue
1 0
2 0
3 0
4 0
5 0
6 0
7 0
8 0
9 0
10 0
11 0
12 0

@<SCITEGIC>ATOM_PROPERTY
pdb_tempFactor
SciTegic.value.DoubleValue
1 0.00
2 0.00
3 0.00
4 0.00
5 0.00
6 0.00
7 0.00
8 0.00
9 0.00
10 0.00
11 0.00
12 0.00

@<SCITEGIC>ATOM_PROPERTY
pdb_occupancy
SciTegic.value.DoubleValue
1 1.00
2 1.00
3 1.00
4 1.00
5 1.00
6 1.00
7 1.00
8 1.00
9 1.00
10 1.00
11 1.00
12 1.00

#	copyright 2023 drugdesign.org
#	Creation time:	2024-01-11T10:58:44Z

@<TRIPOS>MOLECULE
propanol_360.sd
   12    11     0 0 0
SMALL
USER_CHARGES


@<TRIPOS>ATOM
      1 H1            0.000000    0.000000    0.000000 H        1 SUBUNIT    0.2100
      2 C2            2.945200    1.441100   -0.000700 C.3      1 SUBUNIT   -0.0327
      3 C3            1.414900    1.350200    0.000000 C.3      1 SUBUNIT    0.0429
      4 O4            0.950000    0.000000    0.000000 O.3      1 SUBUNIT   -0.3962
      5 C5            3.546600    1.157700   -1.382000 C.3      1 SUBUNIT   -0.0632
      6 H6            3.270600    0.137800   -1.715500 H        1 SUBUNIT    0.0231
      7 H7            3.166300    1.890800   -2.120600 H        1 SUBUNIT    0.0231
      8 H8            4.651200    1.233300   -1.339200 H        1 SUBUNIT    0.0231
      9 H9            3.257100    2.448200    0.340200 H        1 SUBUNIT    0.0287
     10 H10           3.359600    0.726800    0.738000 H        1 SUBUNIT    0.0287
     11 H11           1.011300    1.881500   -0.884600 H        1 SUBUNIT    0.0563
     12 H12           1.012200    1.881200    0.885100 H        1 SUBUNIT    0.0563
@<TRIPOS>BOND
     1    1    4 1
     2    2    5 1
     3    2    3 1
     4    2    9 1
     5    2   10 1
     6    3    4 1
     7    3   11 1
     8    3   12 1
     9    5    6 1
    10    5    7 1
    11    5    8 1
@<SCITEGIC>ATOM_PROPERTY
Formal Charge
SciTegic.value.StringValue
1 0
2 0
3 0
4 0
5 0
6 0
7 0
8 0
9 0
10 0
11 0
12 0

@<SCITEGIC>ATOM_PROPERTY
pdb_tempFactor
SciTegic.value.DoubleValue
1 0.00
2 0.00
3 0.00
4 0.00
5 0.00
6 0.00
7 0.00
8 0.00
9 0.00
10 0.00
11 0.00
12 0.00

@<SCITEGIC>ATOM_PROPERTY
pdb_occupancy
SciTegic.value.DoubleValue
1 1.00
2 1.00
3 1.00
4 1.00
5 1.00
6 1.00
7 1.00
8 1.00
9 1.00
10 1.00
11 1.00
12 1.00

#	copyright 2023 drugdesign.org
#	Creation time:	2024-01-11T10:58:44Z

@<TRIPOS>MOLECULE
propanol_360.sd
   12    11     0 0 0
SMALL
USER_CHARGES


@<TRIPOS>ATOM
      1 H1            0.000000    0.000000    0.000000 H        1 SUBUNIT    0.2100
      2 C2            2.945200    1.441100   -0.000700 C.3      1 SUBUNIT   -0.0327
      3 C3            1.414900    1.350200    0.000000 C.3      1 SUBUNIT    0.0429
      4 O4            0.950000    0.000000    0.000000 O.3      1 SUBUNIT   -0.3962
      5 C5            3.545200    1.181800   -1.387400 C.3      1 SUBUNIT   -0.0632
      6 H6            3.268800    0.167900   -1.738300 H        1 SUBUNIT    0.0231
      7 H7            3.164100    1.927700   -2.112700 H        1 SUBUNIT    0.0231
      8 H8            4.649800    1.256700   -1.344400 H        1 SUBUNIT    0.0231
      9 H9            3.257500    2.442100    0.357400 H        1 SUBUNIT    0.0287
     10 H10           3.360300    0.714000    0.725000 H        1 SUBUNIT    0.0287
     11 H11           1.011300    1.881500   -0.884600 H        1 SUBUNIT    0.0563
     12 H12           1.012200    1.881200    0.885100 H        1 SUBUNIT    0.0563
@<TRIPOS>BOND
     1    1    4 1
     2    2    5 1
     3    2    3 1
     4    2    9 1
     5    2   10 1
     6    3    4 1
     7    3   11 1
     8    3   12 1
     9    5    6 1
    10    5    7 1
    11    5    8 1
@<SCITEGIC>ATOM_PROPERTY
Formal Charge
SciTegic.value.StringValue
1 0
2 0
3 0
4 0
5 0
6 0
7 0
8 0
9 0
10 0
11 0
12 0

@<SCITEGIC>ATOM_PROPERTY
pdb_tempFactor
SciTegic.value.DoubleValue
1 0.00
2 0.00
3 0.00
4 0.00
5 0.00
6 0.00
7 0.00
8 0.00
9 0.00
10 0.00
11 0.00
12 0.00

@<SCITEGIC>ATOM_PROPERTY
pdb_occupancy
SciTegic.value.DoubleValue
1 1.00
2 1.00
3 1.00
4 1.00
5 1.00
6 1.00
7 1.00
8 1.00
9 1.00
10 1.00
11 1.00
12 1.00

#	copyright 2023 drugdesign.org
#	Creation time:	2024-01-11T10:58:44Z

@<TRIPOS>MOLECULE
propanol_360.sd
   12    11     0 0 0
SMALL
USER_CHARGES


@<TRIPOS>ATOM
      1 H1            0.000000    0.000000    0.000000 H        1 SUBUNIT    0.2100
      2 C2            2.945200    1.441100   -0.000700 C.3      1 SUBUNIT   -0.0327
      3 C3            1.414900    1.350200    0.000000 C.3      1 SUBUNIT    0.0429
      4 O4            0.950000    0.000000    0.000000 O.3      1 SUBUNIT   -0.3962
      5 C5            3.543800    1.206000   -1.392300 C.3      1 SUBUNIT   -0.0632
      6 H6            3.267000    0.198300   -1.760600 H        1 SUBUNIT    0.0231
      7 H7            3.161900    1.964400   -2.104100 H        1 SUBUNIT    0.0231
      8 H8            4.648400    1.280100   -1.349100 H        1 SUBUNIT    0.0231
      9 H9            3.257900    2.435700    0.374400 H        1 SUBUNIT    0.0287
     10 H10           3.361100    0.701500    0.711800 H        1 SUBUNIT    0.0287
     11 H11           1.011300    1.881500   -0.884600 H        1 SUBUNIT    0.0563
     12 H12           1.012200    1.881200    0.885100 H        1 SUBUNIT    0.0563
@<TRIPOS>BOND
     1    1    4 1
     2    2    5 1
     3    2    3 1
     4    2    9 1
     5    2   10 1
     6    3    4 1
     7    3   11 1
     8    3   12 1
     9    5    6 1
    10    5    7 1
    11    5    8 1
@<SCITEGIC>ATOM_PROPERTY
Formal Charge
SciTegic.value.StringValue
1 0
2 0
3 0
4 0
5 0
6 0
7 0
8 0
9 0
10 0
11 0
12 0

@<SCITEGIC>ATOM_PROPERTY
pdb_tempFactor
SciTegic.value.DoubleValue
1 0.00
2 0.00
3 0.00
4 0.00
5 0.00
6 0.00
7 0.00
8 0.00
9 0.00
10 0.00
11 0.00
12 0.00

@<SCITEGIC>ATOM_PROPERTY
pdb_occupancy
SciTegic.value.DoubleValue
1 1.00
2 1.00
3 1.00
4 1.00
5 1.00
6 1.00
7 1.00
8 1.00
9 1.00
10 1.00
11 1.00
12 1.00

#	copyright 2023 drugdesign.org
#	Creation time:	2024-01-11T10:58:44Z

@<TRIPOS>MOLECULE
propanol_360.sd
   12    11     0 0 0
SMALL
USER_CHARGES


@<TRIPOS>ATOM
      1 H1            0.000000    0.000000    0.000000 H        1 SUBUNIT    0.2100
      2 C2            2.945200    1.441100   -0.000700 C.3      1 SUBUNIT   -0.0327
      3 C3            1.414900    1.350200    0.000000 C.3      1 SUBUNIT    0.0429
      4 O4            0.950000    0.000000    0.000000 O.3      1 SUBUNIT   -0.3962
      5 C5            3.542300    1.230300   -1.396800 C.3      1 SUBUNIT   -0.0632
      6 H6            3.265100    0.229200   -1.782300 H        1 SUBUNIT    0.0231
      7 H7            3.159700    2.001000   -2.094900 H        1 SUBUNIT    0.0231
      8 H8            4.647000    1.303700   -1.353500 H        1 SUBUNIT    0.0231
      9 H9            3.258300    2.429000    0.391400 H        1 SUBUNIT    0.0287
     10 H10           3.361800    0.689200    0.698400 H        1 SUBUNIT    0.0287
     11 H11           1.011300    1.881500   -0.884600 H        1 SUBUNIT    0.0563
     12 H12           1.012200    1.881200    0.885100 H        1 SUBUNIT    0.0563
@<TRIPOS>BOND
     1    1    4 1
     2    2    5 1
     3    2    3 1
     4    2    9 1
     5    2   10 1
     6    3    4 1
     7    3   11 1
     8    3   12 1
     9    5    6 1
    10    5    7 1
    11    5    8 1
@<SCITEGIC>ATOM_PROPERTY
Formal Charge
SciTegic.value.StringValue
1 0
2 0
3 0
4 0
5 0
6 0
7 0
8 0
9 0
10 0
11 0
12 0

@<SCITEGIC>ATOM_PROPERTY
pdb_tempFactor
SciTegic.value.DoubleValue
1 0.00
2 0.00
3 0.00
4 0.00
5 0.00
6 0.00
7 0.00
8 0.00
9 0.00
10 0.00
11 0.00
12 0.00

@<SCITEGIC>ATOM_PROPERTY
pdb_occupancy
SciTegic.value.DoubleValue
1 1.00
2 1.00
3 1.00
4 1.00
5 1.00
6 1.00
7 1.00
8 1.00
9 1.00
10 1.00
11 1.00
12 1.00

#	copyright 2023 drugdesign.org
#	Creation time:	2024-01-11T10:58:44Z

@<TRIPOS>MOLECULE
propanol_360.sd
   12    11     0 0 0
SMALL
USER_CHARGES


@<TRIPOS>ATOM
      1 H1            0.000000    0.000000    0.000000 H        1 SUBUNIT    0.2100
      2 C2            2.945200    1.441100   -0.000700 C.3      1 SUBUNIT   -0.0327
      3 C3            1.414900    1.350200    0.000000 C.3      1 SUBUNIT    0.0429
      4 O4            0.950000    0.000000    0.000000 O.3      1 SUBUNIT   -0.3962
      5 C5            3.540900    1.254600   -1.400900 C.3      1 SUBUNIT   -0.0632
      6 H6            3.263300    0.260400   -1.803400 H        1 SUBUNIT    0.0231
      7 H7            3.157600    2.037300   -2.085100 H        1 SUBUNIT    0.0231
      8 H8            4.645600    1.327200   -1.357400 H        1 SUBUNIT    0.0231
      9 H9            3.258700    2.422000    0.408200 H        1 SUBUNIT    0.0287
     10 H10           3.362500    0.677100    0.684700 H        1 SUBUNIT    0.0287
     11 H11           1.011300    1.881500   -0.884600 H        1 SUBUNIT    0.0563
     12 H12           1.012200    1.881200    0.885100 H        1 SUBUNIT    0.0563
@<TRIPOS>BOND
     1    1    4 1
     2    2    5 1
     3    2    3 1
     4    2    9 1
     5    2   10 1
     6    3    4 1
     7    3   11 1
     8    3   12 1
     9    5    6 1
    10    5    7 1
    11    5    8 1
@<SCITEGIC>ATOM_PROPERTY
Formal Charge
SciTegic.value.StringValue
1 0
2 0
3 0
4 0
5 0
6 0
7 0
8 0
9 0
10 0
11 0
12 0

@<SCITEGIC>ATOM_PROPERTY
pdb_tempFactor
SciTegic.value.DoubleValue
1 0.00
2 0.00
3 0.00
4 0.00
5 0.00
6 0.00
7 0.00
8 0.00
9 0.00
10 0.00
11 0.00
12 0.00

@<SCITEGIC>ATOM_PROPERTY
pdb_occupancy
SciTegic.value.DoubleValue
1 1.00
2 1.00
3 1.00
4 1.00
5 1.00
6 1.00
7 1.00
8 1.00
9 1.00
10 1.00
11 1.00
12 1.00

#	copyright 2023 drugdesign.org
#	Creation time:	2024-01-11T10:58:44Z

@<TRIPOS>MOLECULE
propanol_360.sd
   12    11     0 0 0
SMALL
USER_CHARGES


@<TRIPOS>ATOM
      1 H1            0.000000    0.000000    0.000000 H        1 SUBUNIT    0.2100
      2 C2            2.945200    1.441100   -0.000700 C.3      1 SUBUNIT   -0.0327
      3 C3            1.414900    1.350200    0.000000 C.3      1 SUBUNIT    0.0429
      4 O4            0.950000    0.000000    0.000000 O.3      1 SUBUNIT   -0.3962
      5 C5            3.539400    1.279100   -1.404500 C.3      1 SUBUNIT   -0.0632
      6 H6            3.261400    0.292000   -1.824100 H        1 SUBUNIT    0.0231
      7 H7            3.155400    2.073600   -2.074600 H        1 SUBUNIT    0.0231
      8 H8            4.644200    1.350900   -1.361000 H        1 SUBUNIT    0.0231
      9 H9            3.259200    2.414800    0.424900 H        1 SUBUNIT    0.0287
     10 H10           3.363200    0.665300    0.670900 H        1 SUBUNIT    0.0287
     11 H11           1.011300    1.881500   -0.884600 H        1 SUBUNIT    0.0563
     12 H12           1.012200    1.881200    0.885100 H        1 SUBUNIT    0.0563
@<TRIPOS>BOND
     1    1    4 1
     2    2    5 1
     3    2    3 1
     4    2    9 1
     5    2   10 1
     6    3    4 1
     7    3   11 1
     8    3   12 1
     9    5    6 1
    10    5    7 1
    11    5    8 1
@<SCITEGIC>ATOM_PROPERTY
Formal Charge
SciTegic.value.StringValue
1 0
2 0
3 0
4 0
5 0
6 0
7 0
8 0
9 0
10 0
11 0
12 0

@<SCITEGIC>ATOM_PROPERTY
pdb_tempFactor
SciTegic.value.DoubleValue
1 0.00
2 0.00
3 0.00
4 0.00
5 0.00
6 0.00
7 0.00
8 0.00
9 0.00
10 0.00
11 0.00
12 0.00

@<SCITEGIC>ATOM_PROPERTY
pdb_occupancy
SciTegic.value.DoubleValue
1 1.00
2 1.00
3 1.00
4 1.00
5 1.00
6 1.00
7 1.00
8 1.00
9 1.00
10 1.00
11 1.00
12 1.00

#	copyright 2023 drugdesign.org
#	Creation time:	2024-01-11T10:58:44Z

@<TRIPOS>MOLECULE
propanol_360.sd
   12    11     0 0 0
SMALL
USER_CHARGES


@<TRIPOS>ATOM
      1 H1            0.000000    0.000000    0.000000 H        1 SUBUNIT    0.2100
      2 C2            2.945200    1.441100   -0.000700 C.3      1 SUBUNIT   -0.0327
      3 C3            1.414900    1.350200    0.000000 C.3      1 SUBUNIT    0.0429
      4 O4            0.950000    0.000000    0.000000 O.3      1 SUBUNIT   -0.3962
      5 C5            3.538000    1.303600   -1.407700 C.3      1 SUBUNIT   -0.0632
      6 H6            3.259500    0.323900   -1.844100 H        1 SUBUNIT    0.0231
      7 H7            3.153300    2.109600   -2.063500 H        1 SUBUNIT    0.0231
      8 H8            4.642800    1.374600   -1.364100 H        1 SUBUNIT    0.0231
      9 H9            3.259600    2.407200    0.441500 H        1 SUBUNIT    0.0287
     10 H10           3.363900    0.653700    0.656800 H        1 SUBUNIT    0.0287
     11 H11           1.011300    1.881500   -0.884600 H        1 SUBUNIT    0.0563
     12 H12           1.012200    1.881200    0.885100 H        1 SUBUNIT    0.0563
@<TRIPOS>BOND
     1    1    4 1
     2    2    5 1
     3    2    3 1
     4    2    9 1
     5    2   10 1
     6    3    4 1
     7    3   11 1
     8    3   12 1
     9    5    6 1
    10    5    7 1
    11    5    8 1
@<SCITEGIC>ATOM_PROPERTY
Formal Charge
SciTegic.value.StringValue
1 0
2 0
3 0
4 0
5 0
6 0
7 0
8 0
9 0
10 0
11 0
12 0

@<SCITEGIC>ATOM_PROPERTY
pdb_tempFactor
SciTegic.value.DoubleValue
1 0.00
2 0.00
3 0.00
4 0.00
5 0.00
6 0.00
7 0.00
8 0.00
9 0.00
10 0.00
11 0.00
12 0.00

@<SCITEGIC>ATOM_PROPERTY
pdb_occupancy
SciTegic.value.DoubleValue
1 1.00
2 1.00
3 1.00
4 1.00
5 1.00
6 1.00
7 1.00
8 1.00
9 1.00
10 1.00
11 1.00
12 1.00

#	copyright 2023 drugdesign.org
#	Creation time:	2024-01-11T10:58:44Z

@<TRIPOS>MOLECULE
propanol_360.sd
   12    11     0 0 0
SMALL
USER_CHARGES


@<TRIPOS>ATOM
      1 H1            0.000000    0.000000    0.000000 H        1 SUBUNIT    0.2100
      2 C2            2.945200    1.441100   -0.000700 C.3      1 SUBUNIT   -0.0327
      3 C3            1.414900    1.350200    0.000000 C.3      1 SUBUNIT    0.0429
      4 O4            0.950000    0.000000    0.000000 O.3      1 SUBUNIT   -0.3962
      5 C5            3.536500    1.328100   -1.410500 C.3      1 SUBUNIT   -0.0632
      6 H6            3.257500    0.356200   -1.863700 H        1 SUBUNIT    0.0231
      7 H7            3.151200    2.145400   -2.051700 H        1 SUBUNIT    0.0231
      8 H8            4.641400    1.398400   -1.366800 H        1 SUBUNIT    0.0231
      9 H9            3.260100    2.399300    0.457900 H        1 SUBUNIT    0.0287
     10 H10           3.364600    0.642400    0.642600 H        1 SUBUNIT    0.0287
     11 H11           1.011300    1.881500   -0.884600 H        1 SUBUNIT    0.0563
     12 H12           1.012200    1.881200    0.885100 H        1 SUBUNIT    0.0563
@<TRIPOS>BOND
     1    1    4 1
     2    2    5 1
     3    2    3 1
     4    2    9 1
     5    2   10 1
     6    3    4 1
     7    3   11 1
     8    3   12 1
     9    5    6 1
    10    5    7 1
    11    5    8 1
@<SCITEGIC>ATOM_PROPERTY
Formal Charge
SciTegic.value.StringValue
1 0
2 0
3 0
4 0
5 0
6 0
7 0
8 0
9 0
10 0
11 0
12 0

@<SCITEGIC>ATOM_PROPERTY
pdb_tempFactor
SciTegic.value.DoubleValue
1 0.00
2 0.00
3 0.00
4 0.00
5 0.00
6 0.00
7 0.00
8 0.00
9 0.00
10 0.00
11 0.00
12 0.00

@<SCITEGIC>ATOM_PROPERTY
pdb_occupancy
SciTegic.value.DoubleValue
1 1.00
2 1.00
3 1.00
4 1.00
5 1.00
6 1.00
7 1.00
8 1.00
9 1.00
10 1.00
11 1.00
12 1.00

#	copyright 2023 drugdesign.org
#	Creation time:	2024-01-11T10:58:44Z

@<TRIPOS>MOLECULE
propanol_360.sd
   12    11     0 0 0
SMALL
USER_CHARGES


@<TRIPOS>ATOM
      1 H1            0.000000    0.000000    0.000000 H        1 SUBUNIT    0.2100
      2 C2            2.945200    1.441100   -0.000700 C.3      1 SUBUNIT   -0.0327
      3 C3            1.414900    1.350200    0.000000 C.3      1 SUBUNIT    0.0429
      4 O4            0.950000    0.000000    0.000000 O.3      1 SUBUNIT   -0.3962
      5 C5            3.535000    1.352700   -1.412900 C.3      1 SUBUNIT   -0.0632
      6 H6            3.255600    0.388800   -1.882600 H        1 SUBUNIT    0.0231
      7 H7            3.149000    2.181100   -2.039300 H        1 SUBUNIT    0.0231
      8 H8            4.640000    1.422200   -1.369100 H        1 SUBUNIT    0.0231
      9 H9            3.260600    2.391200    0.474200 H        1 SUBUNIT    0.0287
     10 H10           3.365200    0.631300    0.628100 H        1 SUBUNIT    0.0287
     11 H11           1.011300    1.881500   -0.884600 H        1 SUBUNIT    0.0563
     12 H12           1.012200    1.881200    0.885100 H        1 SUBUNIT    0.0563
@<TRIPOS>BOND
     1    1    4 1
     2    2    5 1
     3    2    3 1
     4    2    9 1
     5    2   10 1
     6    3    4 1
     7    3   11 1
     8    3   12 1
     9    5    6 1
    10    5    7 1
    11    5    8 1
@<SCITEGIC>ATOM_PROPERTY
Formal Charge
SciTegic.value.StringValue
1 0
2 0
3 0
4 0
5 0
6 0
7 0
8 0
9 0
10 0
11 0
12 0

@<SCITEGIC>ATOM_PROPERTY
pdb_tempFactor
SciTegic.value.DoubleValue
1 0.00
2 0.00
3 0.00
4 0.00
5 0.00
6 0.00
7 0.00
8 0.00
9 0.00
10 0.00
11 0.00
12 0.00

@<SCITEGIC>ATOM_PROPERTY
pdb_occupancy
SciTegic.value.DoubleValue
1 1.00
2 1.00
3 1.00
4 1.00
5 1.00
6 1.00
7 1.00
8 1.00
9 1.00
10 1.00
11 1.00
12 1.00

#	copyright 2023 drugdesign.org
#	Creation time:	2024-01-11T10:58:44Z

@<TRIPOS>MOLECULE
propanol_360.sd
   12    11     0 0 0
SMALL
USER_CHARGES


@<TRIPOS>ATOM
      1 H1            0.000000    0.000000    0.000000 H        1 SUBUNIT    0.2100
      2 C2            2.945200    1.441100   -0.000700 C.3      1 SUBUNIT   -0.0327
      3 C3            1.414900    1.350200    0.000000 C.3      1 SUBUNIT    0.0429
      4 O4            0.950000    0.000000    0.000000 O.3      1 SUBUNIT   -0.3962
      5 C5            3.533600    1.377300   -1.414800 C.3      1 SUBUNIT   -0.0632
      6 H6            3.253600    0.421800   -1.901000 H        1 SUBUNIT    0.0231
      7 H7            3.147000    2.216500   -2.026400 H        1 SUBUNIT    0.0231
      8 H8            4.638600    1.446000   -1.371000 H        1 SUBUNIT    0.0231
      9 H9            3.261100    2.382800    0.490400 H        1 SUBUNIT    0.0287
     10 H10           3.365900    0.620400    0.613500 H        1 SUBUNIT    0.0287
     11 H11           1.011300    1.881500   -0.884600 H        1 SUBUNIT    0.0563
     12 H12           1.012200    1.881200    0.885100 H        1 SUBUNIT    0.0563
@<TRIPOS>BOND
     1    1    4 1
     2    2    5 1
     3    2    3 1
     4    2    9 1
     5    2   10 1
     6    3    4 1
     7    3   11 1
     8    3   12 1
     9    5    6 1
    10    5    7 1
    11    5    8 1
@<SCITEGIC>ATOM_PROPERTY
Formal Charge
SciTegic.value.StringValue
1 0
2 0
3 0
4 0
5 0
6 0
7 0
8 0
9 0
10 0
11 0
12 0

@<SCITEGIC>ATOM_PROPERTY
pdb_tempFactor
SciTegic.value.DoubleValue
1 0.00
2 0.00
3 0.00
4 0.00
5 0.00
6 0.00
7 0.00
8 0.00
9 0.00
10 0.00
11 0.00
12 0.00

@<SCITEGIC>ATOM_PROPERTY
pdb_occupancy
SciTegic.value.DoubleValue
1 1.00
2 1.00
3 1.00
4 1.00
5 1.00
6 1.00
7 1.00
8 1.00
9 1.00
10 1.00
11 1.00
12 1.00

#	copyright 2023 drugdesign.org
#	Creation time:	2024-01-11T10:58:44Z

@<TRIPOS>MOLECULE
propanol_360.sd
   12    11     0 0 0
SMALL
USER_CHARGES


@<TRIPOS>ATOM
      1 H1            0.000000    0.000000    0.000000 H        1 SUBUNIT    0.2100
      2 C2            2.945200    1.441100   -0.000700 C.3      1 SUBUNIT   -0.0327
      3 C3            1.414900    1.350200    0.000000 C.3      1 SUBUNIT    0.0429
      4 O4            0.950000    0.000000    0.000000 O.3      1 SUBUNIT   -0.3962
      5 C5            3.532100    1.401900   -1.416300 C.3      1 SUBUNIT   -0.0632
      6 H6            3.251700    0.455000   -1.918700 H        1 SUBUNIT    0.0231
      7 H7            3.144900    2.251600   -2.012700 H        1 SUBUNIT    0.0231
      8 H8            4.637200    1.469900   -1.372400 H        1 SUBUNIT    0.0231
      9 H9            3.261600    2.374100    0.506400 H        1 SUBUNIT    0.0287
     10 H10           3.366500    0.609900    0.598700 H        1 SUBUNIT    0.0287
     11 H11           1.011300    1.881500   -0.884600 H        1 SUBUNIT    0.0563
     12 H12           1.012200    1.881200    0.885100 H        1 SUBUNIT    0.0563
@<TRIPOS>BOND
     1    1    4 1
     2    2    5 1
     3    2    3 1
     4    2    9 1
     5    2   10 1
     6    3    4 1
     7    3   11 1
     8    3   12 1
     9    5    6 1
    10    5    7 1
    11    5    8 1
@<SCITEGIC>ATOM_PROPERTY
Formal Charge
SciTegic.value.StringValue
1 0
2 0
3 0
4 0
5 0
6 0
7 0
8 0
9 0
10 0
11 0
12 0

@<SCITEGIC>ATOM_PROPERTY
pdb_tempFactor
SciTegic.value.DoubleValue
1 0.00
2 0.00
3 0.00
4 0.00
5 0.00
6 0.00
7 0.00
8 0.00
9 0.00
10 0.00
11 0.00
12 0.00

@<SCITEGIC>ATOM_PROPERTY
pdb_occupancy
SciTegic.value.DoubleValue
1 1.00
2 1.00
3 1.00
4 1.00
5 1.00
6 1.00
7 1.00
8 1.00
9 1.00
10 1.00
11 1.00
12 1.00

#	copyright 2023 drugdesign.org
#	Creation time:	2024-01-11T10:58:44Z

@<TRIPOS>MOLECULE
propanol_360.sd
   12    11     0 0 0
SMALL
USER_CHARGES


@<TRIPOS>ATOM
      1 H1            0.000000    0.000000    0.000000 H        1 SUBUNIT    0.2100
      2 C2            2.945200    1.441100   -0.000700 C.3      1 SUBUNIT   -0.0327
      3 C3            1.414900    1.350200    0.000000 C.3      1 SUBUNIT    0.0429
      4 O4            0.950000    0.000000    0.000000 O.3      1 SUBUNIT   -0.3962
      5 C5            3.530600    1.426600   -1.417400 C.3      1 SUBUNIT   -0.0632
      6 H6            3.249600    0.488600   -1.935900 H        1 SUBUNIT    0.0231
      7 H7            3.142800    2.286600   -1.998500 H        1 SUBUNIT    0.0231
      8 H8            4.635700    1.493800   -1.373500 H        1 SUBUNIT    0.0231
      9 H9            3.262200    2.365100    0.522200 H        1 SUBUNIT    0.0287
     10 H10           3.367100    0.599600    0.583700 H        1 SUBUNIT    0.0287
     11 H11           1.011300    1.881500   -0.884600 H        1 SUBUNIT    0.0563
     12 H12           1.012200    1.881200    0.885100 H        1 SUBUNIT    0.0563
@<TRIPOS>BOND
     1    1    4 1
     2    2    5 1
     3    2    3 1
     4    2    9 1
     5    2   10 1
     6    3    4 1
     7    3   11 1
     8    3   12 1
     9    5    6 1
    10    5    7 1
    11    5    8 1
@<SCITEGIC>ATOM_PROPERTY
Formal Charge
SciTegic.value.StringValue
1 0
2 0
3 0
4 0
5 0
6 0
7 0
8 0
9 0
10 0
11 0
12 0

@<SCITEGIC>ATOM_PROPERTY
pdb_tempFactor
SciTegic.value.DoubleValue
1 0.00
2 0.00
3 0.00
4 0.00
5 0.00
6 0.00
7 0.00
8 0.00
9 0.00
10 0.00
11 0.00
12 0.00

@<SCITEGIC>ATOM_PROPERTY
pdb_occupancy
SciTegic.value.DoubleValue
1 1.00
2 1.00
3 1.00
4 1.00
5 1.00
6 1.00
7 1.00
8 1.00
9 1.00
10 1.00
11 1.00
12 1.00

#	copyright 2023 drugdesign.org
#	Creation time:	2024-01-11T10:58:44Z

@<TRIPOS>MOLECULE
propanol_360.sd
   12    11     0 0 0
SMALL
USER_CHARGES


@<TRIPOS>ATOM
      1 H1            0.000000    0.000000    0.000000 H        1 SUBUNIT    0.2100
      2 C2            2.945200    1.441100   -0.000700 C.3      1 SUBUNIT   -0.0327
      3 C3            1.414900    1.350200    0.000000 C.3      1 SUBUNIT    0.0429
      4 O4            0.950000    0.000000    0.000000 O.3      1 SUBUNIT   -0.3962
      5 C5            3.529200    1.451300   -1.418100 C.3      1 SUBUNIT   -0.0632
      6 H6            3.247600    0.522500   -1.952600 H        1 SUBUNIT    0.0231
      7 H7            3.140700    2.321300   -1.983700 H        1 SUBUNIT    0.0231
      8 H8            4.634300    1.517700   -1.374100 H        1 SUBUNIT    0.0231
      9 H9            3.262700    2.355900    0.537900 H        1 SUBUNIT    0.0287
     10 H10           3.367700    0.589500    0.568500 H        1 SUBUNIT    0.0287
     11 H11           1.011300    1.881500   -0.884600 H        1 SUBUNIT    0.0563
     12 H12           1.012200    1.881200    0.885100 H        1 SUBUNIT    0.0563
@<TRIPOS>BOND
     1    1    4 1
     2    2    5 1
     3    2    3 1
     4    2    9 1
     5    2   10 1
     6    3    4 1
     7    3   11 1
     8    3   12 1
     9    5    6 1
    10    5    7 1
    11    5    8 1
@<SCITEGIC>ATOM_PROPERTY
Formal Charge
SciTegic.value.StringValue
1 0
2 0
3 0
4 0
5 0
6 0
7 0
8 0
9 0
10 0
11 0
12 0

@<SCITEGIC>ATOM_PROPERTY
pdb_tempFactor
SciTegic.value.DoubleValue
1 0.00
2 0.00
3 0.00
4 0.00
5 0.00
6 0.00
7 0.00
8 0.00
9 0.00
10 0.00
11 0.00
12 0.00

@<SCITEGIC>ATOM_PROPERTY
pdb_occupancy
SciTegic.value.DoubleValue
1 1.00
2 1.00
3 1.00
4 1.00
5 1.00
6 1.00
7 1.00
8 1.00
9 1.00
10 1.00
11 1.00
12 1.00

#	copyright 2023 drugdesign.org
#	Creation time:	2024-01-11T10:58:44Z

@<TRIPOS>MOLECULE
propanol_360.sd
   12    11     0 0 0
SMALL
USER_CHARGES


@<TRIPOS>ATOM
      1 H1            0.000000    0.000000    0.000000 H        1 SUBUNIT    0.2100
      2 C2            2.945200    1.441100   -0.000700 C.3      1 SUBUNIT   -0.0327
      3 C3            1.414900    1.350200    0.000000 C.3      1 SUBUNIT    0.0429
      4 O4            0.950000    0.000000    0.000000 O.3      1 SUBUNIT   -0.3962
      5 C5            3.527700    1.476000   -1.418300 C.3      1 SUBUNIT   -0.0632
      6 H6            3.245600    0.556600   -1.968600 H        1 SUBUNIT    0.0231
      7 H7            3.138700    2.355700   -1.968300 H        1 SUBUNIT    0.0231
      8 H8            4.632900    1.541600   -1.374300 H        1 SUBUNIT    0.0231
      9 H9            3.263300    2.346300    0.553400 H        1 SUBUNIT    0.0287
     10 H10           3.368200    0.579700    0.553100 H        1 SUBUNIT    0.0287
     11 H11           1.011300    1.881500   -0.884600 H        1 SUBUNIT    0.0563
     12 H12           1.012200    1.881200    0.885100 H        1 SUBUNIT    0.0563
@<TRIPOS>BOND
     1    1    4 1
     2    2    5 1
     3    2    3 1
     4    2    9 1
     5    2   10 1
     6    3    4 1
     7    3   11 1
     8    3   12 1
     9    5    6 1
    10    5    7 1
    11    5    8 1
@<SCITEGIC>ATOM_PROPERTY
Formal Charge
SciTegic.value.StringValue
1 0
2 0
3 0
4 0
5 0
6 0
7 0
8 0
9 0
10 0
11 0
12 0

@<SCITEGIC>ATOM_PROPERTY
pdb_tempFactor
SciTegic.value.DoubleValue
1 0.00
2 0.00
3 0.00
4 0.00
5 0.00
6 0.00
7 0.00
8 0.00
9 0.00
10 0.00
11 0.00
12 0.00

@<SCITEGIC>ATOM_PROPERTY
pdb_occupancy
SciTegic.value.DoubleValue
1 1.00
2 1.00
3 1.00
4 1.00
5 1.00
6 1.00
7 1.00
8 1.00
9 1.00
10 1.00
11 1.00
12 1.00

#	copyright 2023 drugdesign.org
#	Creation time:	2024-01-11T10:58:44Z

@<TRIPOS>MOLECULE
propanol_360.sd
   12    11     0 0 0
SMALL
USER_CHARGES


@<TRIPOS>ATOM
      1 H1            0.000000    0.000000    0.000000 H        1 SUBUNIT    0.2100
      2 C2            2.945200    1.441100   -0.000700 C.3      1 SUBUNIT   -0.0327
      3 C3            1.414900    1.350200    0.000000 C.3      1 SUBUNIT    0.0429
      4 O4            0.950000    0.000000    0.000000 O.3      1 SUBUNIT   -0.3962
      5 C5            3.526200    1.500700   -1.418100 C.3      1 SUBUNIT   -0.0632
      6 H6            3.243500    0.591000   -1.984000 H        1 SUBUNIT    0.0231
      7 H7            3.136700    2.389800   -1.952200 H        1 SUBUNIT    0.0231
      8 H8            4.631500    1.565500   -1.374100 H        1 SUBUNIT    0.0231
      9 H9            3.263900    2.336600    0.568800 H        1 SUBUNIT    0.0287
     10 H10           3.368800    0.570200    0.537600 H        1 SUBUNIT    0.0287
     11 H11           1.011300    1.881500   -0.884600 H        1 SUBUNIT    0.0563
     12 H12           1.012200    1.881200    0.885100 H        1 SUBUNIT    0.0563
@<TRIPOS>BOND
     1    1    4 1
     2    2    5 1
     3    2    3 1
     4    2    9 1
     5    2   10 1
     6    3    4 1
     7    3   11 1
     8    3   12 1
     9    5    6 1
    10    5    7 1
    11    5    8 1
@<SCITEGIC>ATOM_PROPERTY
Formal Charge
SciTegic.value.StringValue
1 0
2 0
3 0
4 0
5 0
6 0
7 0
8 0
9 0
10 0
11 0
12 0

@<SCITEGIC>ATOM_PROPERTY
pdb_tempFactor
SciTegic.value.DoubleValue
1 0.00
2 0.00
3 0.00
4 0.00
5 0.00
6 0.00
7 0.00
8 0.00
9 0.00
10 0.00
11 0.00
12 0.00

@<SCITEGIC>ATOM_PROPERTY
pdb_occupancy
SciTegic.value.DoubleValue
1 1.00
2 1.00
3 1.00
4 1.00
5 1.00
6 1.00
7 1.00
8 1.00
9 1.00
10 1.00
11 1.00
12 1.00

#	copyright 2023 drugdesign.org
#	Creation time:	2024-01-11T10:58:44Z

@<TRIPOS>MOLECULE
propanol_360.sd
   12    11     0 0 0
SMALL
USER_CHARGES


@<TRIPOS>ATOM
      1 H1            0.000000    0.000000    0.000000 H        1 SUBUNIT    0.2100
      2 C2            2.945200    1.441100   -0.000700 C.3      1 SUBUNIT   -0.0327
      3 C3            1.414900    1.350200    0.000000 C.3      1 SUBUNIT    0.0429
      4 O4            0.950000    0.000000    0.000000 O.3      1 SUBUNIT   -0.3962
      5 C5            3.524800    1.525400   -1.417400 C.3      1 SUBUNIT   -0.0632
      6 H6            3.241500    0.625700   -1.998800 H        1 SUBUNIT    0.0231
      7 H7            3.134700    2.423700   -1.935600 H        1 SUBUNIT    0.0231
      8 H8            4.630100    1.589500   -1.373500 H        1 SUBUNIT    0.0231
      9 H9            3.264500    2.326500    0.584000 H        1 SUBUNIT    0.0287
     10 H10           3.369300    0.561000    0.521900 H        1 SUBUNIT    0.0287
     11 H11           1.011300    1.881500   -0.884600 H        1 SUBUNIT    0.0563
     12 H12           1.012200    1.881200    0.885100 H        1 SUBUNIT    0.0563
@<TRIPOS>BOND
     1    1    4 1
     2    2    5 1
     3    2    3 1
     4    2    9 1
     5    2   10 1
     6    3    4 1
     7    3   11 1
     8    3   12 1
     9    5    6 1
    10    5    7 1
    11    5    8 1
@<SCITEGIC>ATOM_PROPERTY
Formal Charge
SciTegic.value.StringValue
1 0
2 0
3 0
4 0
5 0
6 0
7 0
8 0
9 0
10 0
11 0
12 0

@<SCITEGIC>ATOM_PROPERTY
pdb_tempFactor
SciTegic.value.DoubleValue
1 0.00
2 0.00
3 0.00
4 0.00
5 0.00
6 0.00
7 0.00
8 0.00
9 0.00
10 0.00
11 0.00
12 0.00

@<SCITEGIC>ATOM_PROPERTY
pdb_occupancy
SciTegic.value.DoubleValue
1 1.00
2 1.00
3 1.00
4 1.00
5 1.00
6 1.00
7 1.00
8 1.00
9 1.00
10 1.00
11 1.00
12 1.00

#	copyright 2023 drugdesign.org
#	Creation time:	2024-01-11T10:58:44Z

@<TRIPOS>MOLECULE
propanol_360.sd
   12    11     0 0 0
SMALL
USER_CHARGES


@<TRIPOS>ATOM
      1 H1            0.000000    0.000000    0.000000 H        1 SUBUNIT    0.2100
      2 C2            2.945200    1.441100   -0.000700 C.3      1 SUBUNIT   -0.0327
      3 C3            1.414900    1.350200    0.000000 C.3      1 SUBUNIT    0.0429
      4 O4            0.950000    0.000000    0.000000 O.3      1 SUBUNIT   -0.3962
      5 C5            3.523300    1.550000   -1.416300 C.3      1 SUBUNIT   -0.0632
      6 H6            3.239400    0.660600   -2.013000 H        1 SUBUNIT    0.0231
      7 H7            3.132700    2.457200   -1.918400 H        1 SUBUNIT    0.0231
      8 H8            4.628600    1.613400   -1.372400 H        1 SUBUNIT    0.0231
      9 H9            3.265100    2.316200    0.599000 H        1 SUBUNIT    0.0287
     10 H10           3.369900    0.552000    0.506000 H        1 SUBUNIT    0.0287
     11 H11           1.011300    1.881500   -0.884600 H        1 SUBUNIT    0.0563
     12 H12           1.012200    1.881200    0.885100 H        1 SUBUNIT    0.0563
@<TRIPOS>BOND
     1    1    4 1
     2    2    5 1
     3    2    3 1
     4    2    9 1
     5    2   10 1
     6    3    4 1
     7    3   11 1
     8    3   12 1
     9    5    6 1
    10    5    7 1
    11    5    8 1
@<SCITEGIC>ATOM_PROPERTY
Formal Charge
SciTegic.value.StringValue
1 0
2 0
3 0
4 0
5 0
6 0
7 0
8 0
9 0
10 0
11 0
12 0

@<SCITEGIC>ATOM_PROPERTY
pdb_tempFactor
SciTegic.value.DoubleValue
1 0.00
2 0.00
3 0.00
4 0.00
5 0.00
6 0.00
7 0.00
8 0.00
9 0.00
10 0.00
11 0.00
12 0.00

@<SCITEGIC>ATOM_PROPERTY
pdb_occupancy
SciTegic.value.DoubleValue
1 1.00
2 1.00
3 1.00
4 1.00
5 1.00
6 1.00
7 1.00
8 1.00
9 1.00
10 1.00
11 1.00
12 1.00

#	copyright 2023 drugdesign.org
#	Creation time:	2024-01-11T10:58:44Z

@<TRIPOS>MOLECULE
propanol_360.sd
   12    11     0 0 0
SMALL
USER_CHARGES


@<TRIPOS>ATOM
      1 H1            0.000000    0.000000    0.000000 H        1 SUBUNIT    0.2100
      2 C2            2.945200    1.441100   -0.000700 C.3      1 SUBUNIT   -0.0327
      3 C3            1.414900    1.350200    0.000000 C.3      1 SUBUNIT    0.0429
      4 O4            0.950000    0.000000    0.000000 O.3      1 SUBUNIT   -0.3962
      5 C5            3.521900    1.574700   -1.414800 C.3      1 SUBUNIT   -0.0632
      6 H6            3.237300    0.695800   -2.026600 H        1 SUBUNIT    0.0231
      7 H7            3.130700    2.490500   -1.900600 H        1 SUBUNIT    0.0231
      8 H8            4.627200    1.637200   -1.370900 H        1 SUBUNIT    0.0231
      9 H9            3.265700    2.305600    0.613800 H        1 SUBUNIT    0.0287
     10 H10           3.370400    0.543300    0.490000 H        1 SUBUNIT    0.0287
     11 H11           1.011300    1.881500   -0.884600 H        1 SUBUNIT    0.0563
     12 H12           1.012200    1.881200    0.885100 H        1 SUBUNIT    0.0563
@<TRIPOS>BOND
     1    1    4 1
     2    2    5 1
     3    2    3 1
     4    2    9 1
     5    2   10 1
     6    3    4 1
     7    3   11 1
     8    3   12 1
     9    5    6 1
    10    5    7 1
    11    5    8 1
@<SCITEGIC>ATOM_PROPERTY
Formal Charge
SciTegic.value.StringValue
1 0
2 0
3 0
4 0
5 0
6 0
7 0
8 0
9 0
10 0
11 0
12 0

@<SCITEGIC>ATOM_PROPERTY
pdb_tempFactor
SciTegic.value.DoubleValue
1 0.00
2 0.00
3 0.00
4 0.00
5 0.00
6 0.00
7 0.00
8 0.00
9 0.00
10 0.00
11 0.00
12 0.00

@<SCITEGIC>ATOM_PROPERTY
pdb_occupancy
SciTegic.value.DoubleValue
1 1.00
2 1.00
3 1.00
4 1.00
5 1.00
6 1.00
7 1.00
8 1.00
9 1.00
10 1.00
11 1.00
12 1.00

#	copyright 2023 drugdesign.org
#	Creation time:	2024-01-11T10:58:44Z

@<TRIPOS>MOLECULE
propanol_360.sd
   12    11     0 0 0
SMALL
USER_CHARGES


@<TRIPOS>ATOM
      1 H1            0.000000    0.000000    0.000000 H        1 SUBUNIT    0.2100
      2 C2            2.945200    1.441100   -0.000700 C.3      1 SUBUNIT   -0.0327
      3 C3            1.414900    1.350200    0.000000 C.3      1 SUBUNIT    0.0429
      4 O4            0.950000    0.000000    0.000000 O.3      1 SUBUNIT   -0.3962
      5 C5            3.520400    1.599300   -1.412900 C.3      1 SUBUNIT   -0.0632
      6 H6            3.235200    0.731200   -2.039600 H        1 SUBUNIT    0.0231
      7 H7            3.128800    2.523400   -1.882200 H        1 SUBUNIT    0.0231
      8 H8            4.625800    1.661100   -1.369100 H        1 SUBUNIT    0.0231
      9 H9            3.266400    2.294800    0.628400 H        1 SUBUNIT    0.0287
     10 H10           3.370900    0.534900    0.473900 H        1 SUBUNIT    0.0287
     11 H11           1.011300    1.881500   -0.884600 H        1 SUBUNIT    0.0563
     12 H12           1.012200    1.881200    0.885100 H        1 SUBUNIT    0.0563
@<TRIPOS>BOND
     1    1    4 1
     2    2    5 1
     3    2    3 1
     4    2    9 1
     5    2   10 1
     6    3    4 1
     7    3   11 1
     8    3   12 1
     9    5    6 1
    10    5    7 1
    11    5    8 1
@<SCITEGIC>ATOM_PROPERTY
Formal Charge
SciTegic.value.StringValue
1 0
2 0
3 0
4 0
5 0
6 0
7 0
8 0
9 0
10 0
11 0
12 0

@<SCITEGIC>ATOM_PROPERTY
pdb_tempFactor
SciTegic.value.DoubleValue
1 0.00
2 0.00
3 0.00
4 0.00
5 0.00
6 0.00
7 0.00
8 0.00
9 0.00
10 0.00
11 0.00
12 0.00

@<SCITEGIC>ATOM_PROPERTY
pdb_occupancy
SciTegic.value.DoubleValue
1 1.00
2 1.00
3 1.00
4 1.00
5 1.00
6 1.00
7 1.00
8 1.00
9 1.00
10 1.00
11 1.00
12 1.00

#	copyright 2023 drugdesign.org
#	Creation time:	2024-01-11T10:58:44Z

@<TRIPOS>MOLECULE
propanol_360.sd
   12    11     0 0 0
SMALL
USER_CHARGES


@<TRIPOS>ATOM
      1 H1            0.000000    0.000000    0.000000 H        1 SUBUNIT    0.2100
      2 C2            2.945200    1.441100   -0.000700 C.3      1 SUBUNIT   -0.0327
      3 C3            1.414900    1.350200    0.000000 C.3      1 SUBUNIT    0.0429
      4 O4            0.950000    0.000000    0.000000 O.3      1 SUBUNIT   -0.3962
      5 C5            3.518900    1.623900   -1.410500 C.3      1 SUBUNIT   -0.0632
      6 H6            3.233100    0.766900   -2.052000 H        1 SUBUNIT    0.0231
      7 H7            3.126900    2.556000   -1.863300 H        1 SUBUNIT    0.0231
      8 H8            4.624400    1.684900   -1.366800 H        1 SUBUNIT    0.0231
      9 H9            3.267100    2.283700    0.642900 H        1 SUBUNIT    0.0287
     10 H10           3.371400    0.526800    0.457600 H        1 SUBUNIT    0.0287
     11 H11           1.011300    1.881500   -0.884600 H        1 SUBUNIT    0.0563
     12 H12           1.012200    1.881200    0.885100 H        1 SUBUNIT    0.0563
@<TRIPOS>BOND
     1    1    4 1
     2    2    5 1
     3    2    3 1
     4    2    9 1
     5    2   10 1
     6    3    4 1
     7    3   11 1
     8    3   12 1
     9    5    6 1
    10    5    7 1
    11    5    8 1
@<SCITEGIC>ATOM_PROPERTY
Formal Charge
SciTegic.value.StringValue
1 0
2 0
3 0
4 0
5 0
6 0
7 0
8 0
9 0
10 0
11 0
12 0

@<SCITEGIC>ATOM_PROPERTY
pdb_tempFactor
SciTegic.value.DoubleValue
1 0.00
2 0.00
3 0.00
4 0.00
5 0.00
6 0.00
7 0.00
8 0.00
9 0.00
10 0.00
11 0.00
12 0.00

@<SCITEGIC>ATOM_PROPERTY
pdb_occupancy
SciTegic.value.DoubleValue
1 1.00
2 1.00
3 1.00
4 1.00
5 1.00
6 1.00
7 1.00
8 1.00
9 1.00
10 1.00
11 1.00
12 1.00

#	copyright 2023 drugdesign.org
#	Creation time:	2024-01-11T10:58:44Z

@<TRIPOS>MOLECULE
propanol_360.sd
   12    11     0 0 0
SMALL
USER_CHARGES


@<TRIPOS>ATOM
      1 H1            0.000000    0.000000    0.000000 H        1 SUBUNIT    0.2100
      2 C2            2.945200    1.441100   -0.000700 C.3      1 SUBUNIT   -0.0327
      3 C3            1.414900    1.350200    0.000000 C.3      1 SUBUNIT    0.0429
      4 O4            0.950000    0.000000    0.000000 O.3      1 SUBUNIT   -0.3962
      5 C5            3.517500    1.648400   -1.407700 C.3      1 SUBUNIT   -0.0632
      6 H6            3.230900    0.802700   -2.063700 H        1 SUBUNIT    0.0231
      7 H7            3.124900    2.588300   -1.843700 H        1 SUBUNIT    0.0231
      8 H8            4.623000    1.708600   -1.364000 H        1 SUBUNIT    0.0231
      9 H9            3.267700    2.272300    0.657100 H        1 SUBUNIT    0.0287
     10 H10           3.371800    0.518900    0.441100 H        1 SUBUNIT    0.0287
     11 H11           1.011300    1.881500   -0.884600 H        1 SUBUNIT    0.0563
     12 H12           1.012200    1.881200    0.885100 H        1 SUBUNIT    0.0563
@<TRIPOS>BOND
     1    1    4 1
     2    2    5 1
     3    2    3 1
     4    2    9 1
     5    2   10 1
     6    3    4 1
     7    3   11 1
     8    3   12 1
     9    5    6 1
    10    5    7 1
    11    5    8 1
@<SCITEGIC>ATOM_PROPERTY
Formal Charge
SciTegic.value.StringValue
1 0
2 0
3 0
4 0
5 0
6 0
7 0
8 0
9 0
10 0
11 0
12 0

@<SCITEGIC>ATOM_PROPERTY
pdb_tempFactor
SciTegic.value.DoubleValue
1 0.00
2 0.00
3 0.00
4 0.00
5 0.00
6 0.00
7 0.00
8 0.00
9 0.00
10 0.00
11 0.00
12 0.00

@<SCITEGIC>ATOM_PROPERTY
pdb_occupancy
SciTegic.value.DoubleValue
1 1.00
2 1.00
3 1.00
4 1.00
5 1.00
6 1.00
7 1.00
8 1.00
9 1.00
10 1.00
11 1.00
12 1.00

#	copyright 2023 drugdesign.org
#	Creation time:	2024-01-11T10:58:44Z

@<TRIPOS>MOLECULE
propanol_360.sd
   12    11     0 0 0
SMALL
USER_CHARGES


@<TRIPOS>ATOM
      1 H1            0.000000    0.000000    0.000000 H        1 SUBUNIT    0.2100
      2 C2            2.945200    1.441100   -0.000700 C.3      1 SUBUNIT   -0.0327
      3 C3            1.414900    1.350200    0.000000 C.3      1 SUBUNIT    0.0429
      4 O4            0.950000    0.000000    0.000000 O.3      1 SUBUNIT   -0.3962
      5 C5            3.516000    1.672900   -1.404400 C.3      1 SUBUNIT   -0.0632
      6 H6            3.228800    0.838700   -2.074800 H        1 SUBUNIT    0.0231
      7 H7            3.123100    2.620200   -1.823700 H        1 SUBUNIT    0.0231
      8 H8            4.621600    1.732400   -1.360900 H        1 SUBUNIT    0.0231
      9 H9            3.268400    2.260700    0.671200 H        1 SUBUNIT    0.0287
     10 H10           3.372300    0.511400    0.424600 H        1 SUBUNIT    0.0287
     11 H11           1.011300    1.881500   -0.884600 H        1 SUBUNIT    0.0563
     12 H12           1.012200    1.881200    0.885100 H        1 SUBUNIT    0.0563
@<TRIPOS>BOND
     1    1    4 1
     2    2    5 1
     3    2    3 1
     4    2    9 1
     5    2   10 1
     6    3    4 1
     7    3   11 1
     8    3   12 1
     9    5    6 1
    10    5    7 1
    11    5    8 1
@<SCITEGIC>ATOM_PROPERTY
Formal Charge
SciTegic.value.StringValue
1 0
2 0
3 0
4 0
5 0
6 0
7 0
8 0
9 0
10 0
11 0
12 0

@<SCITEGIC>ATOM_PROPERTY
pdb_tempFactor
SciTegic.value.DoubleValue
1 0.00
2 0.00
3 0.00
4 0.00
5 0.00
6 0.00
7 0.00
8 0.00
9 0.00
10 0.00
11 0.00
12 0.00

@<SCITEGIC>ATOM_PROPERTY
pdb_occupancy
SciTegic.value.DoubleValue
1 1.00
2 1.00
3 1.00
4 1.00
5 1.00
6 1.00
7 1.00
8 1.00
9 1.00
10 1.00
11 1.00
12 1.00

#	copyright 2023 drugdesign.org
#	Creation time:	2024-01-11T10:58:44Z

@<TRIPOS>MOLECULE
propanol_360.sd
   12    11     0 0 0
SMALL
USER_CHARGES


@<TRIPOS>ATOM
      1 H1            0.000000    0.000000    0.000000 H        1 SUBUNIT    0.2100
      2 C2            2.945200    1.441100   -0.000700 C.3      1 SUBUNIT   -0.0327
      3 C3            1.414900    1.350200    0.000000 C.3      1 SUBUNIT    0.0429
      4 O4            0.950000    0.000000    0.000000 O.3      1 SUBUNIT   -0.3962
      5 C5            3.514600    1.697300   -1.400800 C.3      1 SUBUNIT   -0.0632
      6 H6            3.226600    0.875000   -2.085300 H        1 SUBUNIT    0.0231
      7 H7            3.121200    2.651800   -1.803000 H        1 SUBUNIT    0.0231
      8 H8            4.620200    1.756000   -1.357400 H        1 SUBUNIT    0.0231
      9 H9            3.269100    2.248900    0.685000 H        1 SUBUNIT    0.0287
     10 H10           3.372700    0.504100    0.407900 H        1 SUBUNIT    0.0287
     11 H11           1.011300    1.881500   -0.884600 H        1 SUBUNIT    0.0563
     12 H12           1.012200    1.881200    0.885100 H        1 SUBUNIT    0.0563
@<TRIPOS>BOND
     1    1    4 1
     2    2    5 1
     3    2    3 1
     4    2    9 1
     5    2   10 1
     6    3    4 1
     7    3   11 1
     8    3   12 1
     9    5    6 1
    10    5    7 1
    11    5    8 1
@<SCITEGIC>ATOM_PROPERTY
Formal Charge
SciTegic.value.StringValue
1 0
2 0
3 0
4 0
5 0
6 0
7 0
8 0
9 0
10 0
11 0
12 0

@<SCITEGIC>ATOM_PROPERTY
pdb_tempFactor
SciTegic.value.DoubleValue
1 0.00
2 0.00
3 0.00
4 0.00
5 0.00
6 0.00
7 0.00
8 0.00
9 0.00
10 0.00
11 0.00
12 0.00

@<SCITEGIC>ATOM_PROPERTY
pdb_occupancy
SciTegic.value.DoubleValue
1 1.00
2 1.00
3 1.00
4 1.00
5 1.00
6 1.00
7 1.00
8 1.00
9 1.00
10 1.00
11 1.00
12 1.00

#	copyright 2023 drugdesign.org
#	Creation time:	2024-01-11T10:58:44Z

@<TRIPOS>MOLECULE
propanol_360.sd
   12    11     0 0 0
SMALL
USER_CHARGES


@<TRIPOS>ATOM
      1 H1            0.000000    0.000000    0.000000 H        1 SUBUNIT    0.2100
      2 C2            2.945200    1.441100   -0.000700 C.3      1 SUBUNIT   -0.0327
      3 C3            1.414900    1.350200    0.000000 C.3      1 SUBUNIT    0.0429
      4 O4            0.950000    0.000000    0.000000 O.3      1 SUBUNIT   -0.3962
      5 C5            3.513100    1.721700   -1.396700 C.3      1 SUBUNIT   -0.0632
      6 H6            3.224500    0.911400   -2.095100 H        1 SUBUNIT    0.0231
      7 H7            3.119300    2.683000   -1.781800 H        1 SUBUNIT    0.0231
      8 H8            4.618800    1.779600   -1.353400 H        1 SUBUNIT    0.0231
      9 H9            3.269900    2.236900    0.698600 H        1 SUBUNIT    0.0287
     10 H10           3.373100    0.497100    0.391000 H        1 SUBUNIT    0.0287
     11 H11           1.011300    1.881500   -0.884600 H        1 SUBUNIT    0.0563
     12 H12           1.012200    1.881200    0.885100 H        1 SUBUNIT    0.0563
@<TRIPOS>BOND
     1    1    4 1
     2    2    5 1
     3    2    3 1
     4    2    9 1
     5    2   10 1
     6    3    4 1
     7    3   11 1
     8    3   12 1
     9    5    6 1
    10    5    7 1
    11    5    8 1
@<SCITEGIC>ATOM_PROPERTY
Formal Charge
SciTegic.value.StringValue
1 0
2 0
3 0
4 0
5 0
6 0
7 0
8 0
9 0
10 0
11 0
12 0

@<SCITEGIC>ATOM_PROPERTY
pdb_tempFactor
SciTegic.value.DoubleValue
1 0.00
2 0.00
3 0.00
4 0.00
5 0.00
6 0.00
7 0.00
8 0.00
9 0.00
10 0.00
11 0.00
12 0.00

@<SCITEGIC>ATOM_PROPERTY
pdb_occupancy
SciTegic.value.DoubleValue
1 1.00
2 1.00
3 1.00
4 1.00
5 1.00
6 1.00
7 1.00
8 1.00
9 1.00
10 1.00
11 1.00
12 1.00

#	copyright 2023 drugdesign.org
#	Creation time:	2024-01-11T10:58:44Z

@<TRIPOS>MOLECULE
propanol_360.sd
   12    11     0 0 0
SMALL
USER_CHARGES


@<TRIPOS>ATOM
      1 H1            0.000000    0.000000    0.000000 H        1 SUBUNIT    0.2100
      2 C2            2.945200    1.441100   -0.000700 C.3      1 SUBUNIT   -0.0327
      3 C3            1.414900    1.350200    0.000000 C.3      1 SUBUNIT    0.0429
      4 O4            0.950000    0.000000    0.000000 O.3      1 SUBUNIT   -0.3962
      5 C5            3.511700    1.745900   -1.392200 C.3      1 SUBUNIT   -0.0632
      6 H6            3.222300    0.947900   -2.104300 H        1 SUBUNIT    0.0231
      7 H7            3.117500    2.713900   -1.760100 H        1 SUBUNIT    0.0231
      8 H8            4.617400    1.803100   -1.349000 H        1 SUBUNIT    0.0231
      9 H9            3.270600    2.224500    0.712100 H        1 SUBUNIT    0.0287
     10 H10           3.373500    0.490400    0.374100 H        1 SUBUNIT    0.0287
     11 H11           1.011300    1.881500   -0.884600 H        1 SUBUNIT    0.0563
     12 H12           1.012200    1.881200    0.885100 H        1 SUBUNIT    0.0563
@<TRIPOS>BOND
     1    1    4 1
     2    2    5 1
     3    2    3 1
     4    2    9 1
     5    2   10 1
     6    3    4 1
     7    3   11 1
     8    3   12 1
     9    5    6 1
    10    5    7 1
    11    5    8 1
@<SCITEGIC>ATOM_PROPERTY
Formal Charge
SciTegic.value.StringValue
1 0
2 0
3 0
4 0
5 0
6 0
7 0
8 0
9 0
10 0
11 0
12 0

@<SCITEGIC>ATOM_PROPERTY
pdb_tempFactor
SciTegic.value.DoubleValue
1 0.00
2 0.00
3 0.00
4 0.00
5 0.00
6 0.00
7 0.00
8 0.00
9 0.00
10 0.00
11 0.00
12 0.00

@<SCITEGIC>ATOM_PROPERTY
pdb_occupancy
SciTegic.value.DoubleValue
1 1.00
2 1.00
3 1.00
4 1.00
5 1.00
6 1.00
7 1.00
8 1.00
9 1.00
10 1.00
11 1.00
12 1.00

#	copyright 2023 drugdesign.org
#	Creation time:	2024-01-11T10:58:44Z

@<TRIPOS>MOLECULE
propanol_360.sd
   12    11     0 0 0
SMALL
USER_CHARGES


@<TRIPOS>ATOM
      1 H1            0.000000    0.000000    0.000000 H        1 SUBUNIT    0.2100
      2 C2            2.945200    1.441100   -0.000700 C.3      1 SUBUNIT   -0.0327
      3 C3            1.414900    1.350200    0.000000 C.3      1 SUBUNIT    0.0429
      4 O4            0.950000    0.000000    0.000000 O.3      1 SUBUNIT   -0.3962
      5 C5            3.510300    1.770100   -1.387200 C.3      1 SUBUNIT   -0.0632
      6 H6            3.220100    0.984700   -2.112900 H        1 SUBUNIT    0.0231
      7 H7            3.115700    2.744300   -1.737800 H        1 SUBUNIT    0.0231
      8 H8            4.616000    1.826600   -1.344300 H        1 SUBUNIT    0.0231
      9 H9            3.271400    2.212000    0.725300 H        1 SUBUNIT    0.0287
     10 H10           3.373800    0.484000    0.357000 H        1 SUBUNIT    0.0287
     11 H11           1.011300    1.881500   -0.884600 H        1 SUBUNIT    0.0563
     12 H12           1.012200    1.881200    0.885100 H        1 SUBUNIT    0.0563
@<TRIPOS>BOND
     1    1    4 1
     2    2    5 1
     3    2    3 1
     4    2    9 1
     5    2   10 1
     6    3    4 1
     7    3   11 1
     8    3   12 1
     9    5    6 1
    10    5    7 1
    11    5    8 1
@<SCITEGIC>ATOM_PROPERTY
Formal Charge
SciTegic.value.StringValue
1 0
2 0
3 0
4 0
5 0
6 0
7 0
8 0
9 0
10 0
11 0
12 0

@<SCITEGIC>ATOM_PROPERTY
pdb_tempFactor
SciTegic.value.DoubleValue
1 0.00
2 0.00
3 0.00
4 0.00
5 0.00
6 0.00
7 0.00
8 0.00
9 0.00
10 0.00
11 0.00
12 0.00

@<SCITEGIC>ATOM_PROPERTY
pdb_occupancy
SciTegic.value.DoubleValue
1 1.00
2 1.00
3 1.00
4 1.00
5 1.00
6 1.00
7 1.00
8 1.00
9 1.00
10 1.00
11 1.00
12 1.00

#	copyright 2023 drugdesign.org
#	Creation time:	2024-01-11T10:58:44Z

@<TRIPOS>MOLECULE
propanol_360.sd
   12    11     0 0 0
SMALL
USER_CHARGES


@<TRIPOS>ATOM
      1 H1            0.000000    0.000000    0.000000 H        1 SUBUNIT    0.2100
      2 C2            2.945200    1.441100   -0.000700 C.3      1 SUBUNIT   -0.0327
      3 C3            1.414900    1.350200    0.000000 C.3      1 SUBUNIT    0.0429
      4 O4            0.950000    0.000000    0.000000 O.3      1 SUBUNIT   -0.3962
      5 C5            3.508800    1.794200   -1.381900 C.3      1 SUBUNIT   -0.0632
      6 H6            3.217900    1.021500   -2.120800 H        1 SUBUNIT    0.0231
      7 H7            3.113900    2.774400   -1.715100 H        1 SUBUNIT    0.0231
      8 H8            4.614600    1.849900   -1.339100 H        1 SUBUNIT    0.0231
      9 H9            3.272100    2.199300    0.738200 H        1 SUBUNIT    0.0287
     10 H10           3.374200    0.478000    0.339800 H        1 SUBUNIT    0.0287
     11 H11           1.011300    1.881500   -0.884600 H        1 SUBUNIT    0.0563
     12 H12           1.012200    1.881200    0.885100 H        1 SUBUNIT    0.0563
@<TRIPOS>BOND
     1    1    4 1
     2    2    5 1
     3    2    3 1
     4    2    9 1
     5    2   10 1
     6    3    4 1
     7    3   11 1
     8    3   12 1
     9    5    6 1
    10    5    7 1
    11    5    8 1
@<SCITEGIC>ATOM_PROPERTY
Formal Charge
SciTegic.value.StringValue
1 0
2 0
3 0
4 0
5 0
6 0
7 0
8 0
9 0
10 0
11 0
12 0

@<SCITEGIC>ATOM_PROPERTY
pdb_tempFactor
SciTegic.value.DoubleValue
1 0.00
2 0.00
3 0.00
4 0.00
5 0.00
6 0.00
7 0.00
8 0.00
9 0.00
10 0.00
11 0.00
12 0.00

@<SCITEGIC>ATOM_PROPERTY
pdb_occupancy
SciTegic.value.DoubleValue
1 1.00
2 1.00
3 1.00
4 1.00
5 1.00
6 1.00
7 1.00
8 1.00
9 1.00
10 1.00
11 1.00
12 1.00

#	copyright 2023 drugdesign.org
#	Creation time:	2024-01-11T10:58:44Z

@<TRIPOS>MOLECULE
propanol_360.sd
   12    11     0 0 0
SMALL
USER_CHARGES


@<TRIPOS>ATOM
      1 H1            0.000000    0.000000    0.000000 H        1 SUBUNIT    0.2100
      2 C2            2.945200    1.441100   -0.000700 C.3      1 SUBUNIT   -0.0327
      3 C3            1.414900    1.350200    0.000000 C.3      1 SUBUNIT    0.0429
      4 O4            0.950000    0.000000    0.000000 O.3      1 SUBUNIT   -0.3962
      5 C5            3.507400    1.818200   -1.376100 C.3      1 SUBUNIT   -0.0632
      6 H6            3.215700    1.058500   -2.128000 H        1 SUBUNIT    0.0231
      7 H7            3.112200    2.804100   -1.691700 H        1 SUBUNIT    0.0231
      8 H8            4.613200    1.873200   -1.333500 H        1 SUBUNIT    0.0231
      9 H9            3.272900    2.186300    0.751000 H        1 SUBUNIT    0.0287
     10 H10           3.374500    0.472200    0.322600 H        1 SUBUNIT    0.0287
     11 H11           1.011300    1.881500   -0.884600 H        1 SUBUNIT    0.0563
     12 H12           1.012200    1.881200    0.885100 H        1 SUBUNIT    0.0563
@<TRIPOS>BOND
     1    1    4 1
     2    2    5 1
     3    2    3 1
     4    2    9 1
     5    2   10 1
     6    3    4 1
     7    3   11 1
     8    3   12 1
     9    5    6 1
    10    5    7 1
    11    5    8 1
@<SCITEGIC>ATOM_PROPERTY
Formal Charge
SciTegic.value.StringValue
1 0
2 0
3 0
4 0
5 0
6 0
7 0
8 0
9 0
10 0
11 0
12 0

@<SCITEGIC>ATOM_PROPERTY
pdb_tempFactor
SciTegic.value.DoubleValue
1 0.00
2 0.00
3 0.00
4 0.00
5 0.00
6 0.00
7 0.00
8 0.00
9 0.00
10 0.00
11 0.00
12 0.00

@<SCITEGIC>ATOM_PROPERTY
pdb_occupancy
SciTegic.value.DoubleValue
1 1.00
2 1.00
3 1.00
4 1.00
5 1.00
6 1.00
7 1.00
8 1.00
9 1.00
10 1.00
11 1.00
12 1.00

#	copyright 2023 drugdesign.org
#	Creation time:	2024-01-11T10:58:44Z

@<TRIPOS>MOLECULE
propanol_360.sd
   12    11     0 0 0
SMALL
USER_CHARGES


@<TRIPOS>ATOM
      1 H1            0.000000    0.000000    0.000000 H        1 SUBUNIT    0.2100
      2 C2            2.945200    1.441100   -0.000700 C.3      1 SUBUNIT   -0.0327
      3 C3            1.414900    1.350200    0.000000 C.3      1 SUBUNIT    0.0429
      4 O4            0.950000    0.000000    0.000000 O.3      1 SUBUNIT   -0.3962
      5 C5            3.506000    1.842100   -1.369900 C.3      1 SUBUNIT   -0.0632
      6 H6            3.213500    1.095600   -2.134700 H        1 SUBUNIT    0.0231
      7 H7            3.110500    2.833300   -1.667900 H        1 SUBUNIT    0.0231
      8 H8            4.611800    1.896300   -1.327500 H        1 SUBUNIT    0.0231
      9 H9            3.273700    2.173100    0.763500 H        1 SUBUNIT    0.0287
     10 H10           3.374900    0.466700    0.305200 H        1 SUBUNIT    0.0287
     11 H11           1.011300    1.881500   -0.884600 H        1 SUBUNIT    0.0563
     12 H12           1.012200    1.881200    0.885100 H        1 SUBUNIT    0.0563
@<TRIPOS>BOND
     1    1    4 1
     2    2    5 1
     3    2    3 1
     4    2    9 1
     5    2   10 1
     6    3    4 1
     7    3   11 1
     8    3   12 1
     9    5    6 1
    10    5    7 1
    11    5    8 1
@<SCITEGIC>ATOM_PROPERTY
Formal Charge
SciTegic.value.StringValue
1 0
2 0
3 0
4 0
5 0
6 0
7 0
8 0
9 0
10 0
11 0
12 0

@<SCITEGIC>ATOM_PROPERTY
pdb_tempFactor
SciTegic.value.DoubleValue
1 0.00
2 0.00
3 0.00
4 0.00
5 0.00
6 0.00
7 0.00
8 0.00
9 0.00
10 0.00
11 0.00
12 0.00

@<SCITEGIC>ATOM_PROPERTY
pdb_occupancy
SciTegic.value.DoubleValue
1 1.00
2 1.00
3 1.00
4 1.00
5 1.00
6 1.00
7 1.00
8 1.00
9 1.00
10 1.00
11 1.00
12 1.00

#	copyright 2023 drugdesign.org
#	Creation time:	2024-01-11T10:58:44Z

@<TRIPOS>MOLECULE
propanol_360.sd
   12    11     0 0 0
SMALL
USER_CHARGES


@<TRIPOS>ATOM
      1 H1            0.000000    0.000000    0.000000 H        1 SUBUNIT    0.2100
      2 C2            2.945200    1.441100   -0.000700 C.3      1 SUBUNIT   -0.0327
      3 C3            1.414900    1.350200    0.000000 C.3      1 SUBUNIT    0.0429
      4 O4            0.950000    0.000000    0.000000 O.3      1 SUBUNIT   -0.3962
      5 C5            3.504600    1.865900   -1.363300 C.3      1 SUBUNIT   -0.0632
      6 H6            3.211300    1.132900   -2.140600 H        1 SUBUNIT    0.0231
      7 H7            3.108800    2.862200   -1.643600 H        1 SUBUNIT    0.0231
      8 H8            4.610500    1.919400   -1.321100 H        1 SUBUNIT    0.0231
      9 H9            3.274500    2.159600    0.775800 H        1 SUBUNIT    0.0287
     10 H10           3.375200    0.461500    0.287700 H        1 SUBUNIT    0.0287
     11 H11           1.011300    1.881500   -0.884600 H        1 SUBUNIT    0.0563
     12 H12           1.012200    1.881200    0.885100 H        1 SUBUNIT    0.0563
@<TRIPOS>BOND
     1    1    4 1
     2    2    5 1
     3    2    3 1
     4    2    9 1
     5    2   10 1
     6    3    4 1
     7    3   11 1
     8    3   12 1
     9    5    6 1
    10    5    7 1
    11    5    8 1
@<SCITEGIC>ATOM_PROPERTY
Formal Charge
SciTegic.value.StringValue
1 0
2 0
3 0
4 0
5 0
6 0
7 0
8 0
9 0
10 0
11 0
12 0

@<SCITEGIC>ATOM_PROPERTY
pdb_tempFactor
SciTegic.value.DoubleValue
1 0.00
2 0.00
3 0.00
4 0.00
5 0.00
6 0.00
7 0.00
8 0.00
9 0.00
10 0.00
11 0.00
12 0.00

@<SCITEGIC>ATOM_PROPERTY
pdb_occupancy
SciTegic.value.DoubleValue
1 1.00
2 1.00
3 1.00
4 1.00
5 1.00
6 1.00
7 1.00
8 1.00
9 1.00
10 1.00
11 1.00
12 1.00

#	copyright 2023 drugdesign.org
#	Creation time:	2024-01-11T10:58:44Z

@<TRIPOS>MOLECULE
propanol_360.sd
   12    11     0 0 0
SMALL
USER_CHARGES


@<TRIPOS>ATOM
      1 H1            0.000000    0.000000    0.000000 H        1 SUBUNIT    0.2100
      2 C2            2.945200    1.441100   -0.000700 C.3      1 SUBUNIT   -0.0327
      3 C3            1.414900    1.350200    0.000000 C.3      1 SUBUNIT    0.0429
      4 O4            0.950000    0.000000    0.000000 O.3      1 SUBUNIT   -0.3962
      5 C5            3.503200    1.889600   -1.356300 C.3      1 SUBUNIT   -0.0632
      6 H6            3.209100    1.170200   -2.146000 H        1 SUBUNIT    0.0231
      7 H7            3.107100    2.890600   -1.618700 H        1 SUBUNIT    0.0231
      8 H8            4.609100    1.942300   -1.314200 H        1 SUBUNIT    0.0231
      9 H9            3.275300    2.146000    0.787900 H        1 SUBUNIT    0.0287
     10 H10           3.375400    0.456600    0.270200 H        1 SUBUNIT    0.0287
     11 H11           1.011300    1.881500   -0.884600 H        1 SUBUNIT    0.0563
     12 H12           1.012200    1.881200    0.885100 H        1 SUBUNIT    0.0563
@<TRIPOS>BOND
     1    1    4 1
     2    2    5 1
     3    2    3 1
     4    2    9 1
     5    2   10 1
     6    3    4 1
     7    3   11 1
     8    3   12 1
     9    5    6 1
    10    5    7 1
    11    5    8 1
@<SCITEGIC>ATOM_PROPERTY
Formal Charge
SciTegic.value.StringValue
1 0
2 0
3 0
4 0
5 0
6 0
7 0
8 0
9 0
10 0
11 0
12 0

@<SCITEGIC>ATOM_PROPERTY
pdb_tempFactor
SciTegic.value.DoubleValue
1 0.00
2 0.00
3 0.00
4 0.00
5 0.00
6 0.00
7 0.00
8 0.00
9 0.00
10 0.00
11 0.00
12 0.00

@<SCITEGIC>ATOM_PROPERTY
pdb_occupancy
SciTegic.value.DoubleValue
1 1.00
2 1.00
3 1.00
4 1.00
5 1.00
6 1.00
7 1.00
8 1.00
9 1.00
10 1.00
11 1.00
12 1.00

#	copyright 2023 drugdesign.org
#	Creation time:	2024-01-11T10:58:44Z

@<TRIPOS>MOLECULE
propanol_360.sd
   12    11     0 0 0
SMALL
USER_CHARGES


@<TRIPOS>ATOM
      1 H1            0.000000    0.000000    0.000000 H        1 SUBUNIT    0.2100
      2 C2            2.945200    1.441100   -0.000700 C.3      1 SUBUNIT   -0.0327
      3 C3            1.414900    1.350200    0.000000 C.3      1 SUBUNIT    0.0429
      4 O4            0.950000    0.000000    0.000000 O.3      1 SUBUNIT   -0.3962
      5 C5            3.501800    1.913200   -1.348800 C.3      1 SUBUNIT   -0.0632
      6 H6            3.206800    1.207600   -2.150600 H        1 SUBUNIT    0.0231
      7 H7            3.105400    2.918500   -1.593400 H        1 SUBUNIT    0.0231
      8 H8            4.607800    1.965100   -1.307000 H        1 SUBUNIT    0.0231
      9 H9            3.276100    2.132100    0.799700 H        1 SUBUNIT    0.0287
     10 H10           3.375700    0.452100    0.252500 H        1 SUBUNIT    0.0287
     11 H11           1.011300    1.881500   -0.884600 H        1 SUBUNIT    0.0563
     12 H12           1.012200    1.881200    0.885100 H        1 SUBUNIT    0.0563
@<TRIPOS>BOND
     1    1    4 1
     2    2    5 1
     3    2    3 1
     4    2    9 1
     5    2   10 1
     6    3    4 1
     7    3   11 1
     8    3   12 1
     9    5    6 1
    10    5    7 1
    11    5    8 1
@<SCITEGIC>ATOM_PROPERTY
Formal Charge
SciTegic.value.StringValue
1 0
2 0
3 0
4 0
5 0
6 0
7 0
8 0
9 0
10 0
11 0
12 0

@<SCITEGIC>ATOM_PROPERTY
pdb_tempFactor
SciTegic.value.DoubleValue
1 0.00
2 0.00
3 0.00
4 0.00
5 0.00
6 0.00
7 0.00
8 0.00
9 0.00
10 0.00
11 0.00
12 0.00

@<SCITEGIC>ATOM_PROPERTY
pdb_occupancy
SciTegic.value.DoubleValue
1 1.00
2 1.00
3 1.00
4 1.00
5 1.00
6 1.00
7 1.00
8 1.00
9 1.00
10 1.00
11 1.00
12 1.00

#	copyright 2023 drugdesign.org
#	Creation time:	2024-01-11T10:58:44Z

@<TRIPOS>MOLECULE
propanol_360.sd
   12    11     0 0 0
SMALL
USER_CHARGES


@<TRIPOS>ATOM
      1 H1            0.000000    0.000000    0.000000 H        1 SUBUNIT    0.2100
      2 C2            2.945200    1.441100   -0.000700 C.3      1 SUBUNIT   -0.0327
      3 C3            1.414900    1.350200    0.000000 C.3      1 SUBUNIT    0.0429
      4 O4            0.950000    0.000000    0.000000 O.3      1 SUBUNIT   -0.3962
      5 C5            3.500400    1.936600   -1.341000 C.3      1 SUBUNIT   -0.0632
      6 H6            3.204600    1.245100   -2.154600 H        1 SUBUNIT    0.0231
      7 H7            3.103800    2.946100   -1.567600 H        1 SUBUNIT    0.0231
      8 H8            4.606400    1.987800   -1.299400 H        1 SUBUNIT    0.0231
      9 H9            3.277000    2.118100    0.811300 H        1 SUBUNIT    0.0287
     10 H10           3.375900    0.447800    0.234800 H        1 SUBUNIT    0.0287
     11 H11           1.011300    1.881500   -0.884600 H        1 SUBUNIT    0.0563
     12 H12           1.012200    1.881200    0.885100 H        1 SUBUNIT    0.0563
@<TRIPOS>BOND
     1    1    4 1
     2    2    5 1
     3    2    3 1
     4    2    9 1
     5    2   10 1
     6    3    4 1
     7    3   11 1
     8    3   12 1
     9    5    6 1
    10    5    7 1
    11    5    8 1
@<SCITEGIC>ATOM_PROPERTY
Formal Charge
SciTegic.value.StringValue
1 0
2 0
3 0
4 0
5 0
6 0
7 0
8 0
9 0
10 0
11 0
12 0

@<SCITEGIC>ATOM_PROPERTY
pdb_tempFactor
SciTegic.value.DoubleValue
1 0.00
2 0.00
3 0.00
4 0.00
5 0.00
6 0.00
7 0.00
8 0.00
9 0.00
10 0.00
11 0.00
12 0.00

@<SCITEGIC>ATOM_PROPERTY
pdb_occupancy
SciTegic.value.DoubleValue
1 1.00
2 1.00
3 1.00
4 1.00
5 1.00
6 1.00
7 1.00
8 1.00
9 1.00
10 1.00
11 1.00
12 1.00

#	copyright 2023 drugdesign.org
#	Creation time:	2024-01-11T10:58:44Z

@<TRIPOS>MOLECULE
propanol_360.sd
   12    11     0 0 0
SMALL
USER_CHARGES


@<TRIPOS>ATOM
      1 H1            0.000000    0.000000    0.000000 H        1 SUBUNIT    0.2100
      2 C2            2.945200    1.441100   -0.000700 C.3      1 SUBUNIT   -0.0327
      3 C3            1.414900    1.350200    0.000000 C.3      1 SUBUNIT    0.0429
      4 O4            0.950000    0.000000    0.000000 O.3      1 SUBUNIT   -0.3962
      5 C5            3.499000    1.959900   -1.332700 C.3      1 SUBUNIT   -0.0632
      6 H6            3.202400    1.282700   -2.158000 H        1 SUBUNIT    0.0231
      7 H7            3.102200    2.973100   -1.541300 H        1 SUBUNIT    0.0231
      8 H8            4.605100    2.010300   -1.291400 H        1 SUBUNIT    0.0231
      9 H9            3.277800    2.103800    0.822600 H        1 SUBUNIT    0.0287
     10 H10           3.376200    0.443900    0.217000 H        1 SUBUNIT    0.0287
     11 H11           1.011300    1.881500   -0.884600 H        1 SUBUNIT    0.0563
     12 H12           1.012200    1.881200    0.885100 H        1 SUBUNIT    0.0563
@<TRIPOS>BOND
     1    1    4 1
     2    2    5 1
     3    2    3 1
     4    2    9 1
     5    2   10 1
     6    3    4 1
     7    3   11 1
     8    3   12 1
     9    5    6 1
    10    5    7 1
    11    5    8 1
@<SCITEGIC>ATOM_PROPERTY
Formal Charge
SciTegic.value.StringValue
1 0
2 0
3 0
4 0
5 0
6 0
7 0
8 0
9 0
10 0
11 0
12 0

@<SCITEGIC>ATOM_PROPERTY
pdb_tempFactor
SciTegic.value.DoubleValue
1 0.00
2 0.00
3 0.00
4 0.00
5 0.00
6 0.00
7 0.00
8 0.00
9 0.00
10 0.00
11 0.00
12 0.00

@<SCITEGIC>ATOM_PROPERTY
pdb_occupancy
SciTegic.value.DoubleValue
1 1.00
2 1.00
3 1.00
4 1.00
5 1.00
6 1.00
7 1.00
8 1.00
9 1.00
10 1.00
11 1.00
12 1.00

#	copyright 2023 drugdesign.org
#	Creation time:	2024-01-11T10:58:44Z

@<TRIPOS>MOLECULE
propanol_360.sd
   12    11     0 0 0
SMALL
USER_CHARGES


@<TRIPOS>ATOM
      1 H1            0.000000    0.000000    0.000000 H        1 SUBUNIT    0.2100
      2 C2            2.945200    1.441100   -0.000700 C.3      1 SUBUNIT   -0.0327
      3 C3            1.414900    1.350200    0.000000 C.3      1 SUBUNIT    0.0429
      4 O4            0.950000    0.000000    0.000000 O.3      1 SUBUNIT   -0.3962
      5 C5            3.497600    1.983000   -1.324000 C.3      1 SUBUNIT   -0.0632
      6 H6            3.200100    1.320300   -2.160700 H        1 SUBUNIT    0.0231
      7 H7            3.100600    2.999700   -1.514500 H        1 SUBUNIT    0.0231
      8 H8            4.603800    2.032700   -1.283000 H        1 SUBUNIT    0.0231
      9 H9            3.278700    2.089400    0.833700 H        1 SUBUNIT    0.0287
     10 H10           3.376400    0.440200    0.199200 H        1 SUBUNIT    0.0287
     11 H11           1.011300    1.881500   -0.884600 H        1 SUBUNIT    0.0563
     12 H12           1.012200    1.881200    0.885100 H        1 SUBUNIT    0.0563
@<TRIPOS>BOND
     1    1    4 1
     2    2    5 1
     3    2    3 1
     4    2    9 1
     5    2   10 1
     6    3    4 1
     7    3   11 1
     8    3   12 1
     9    5    6 1
    10    5    7 1
    11    5    8 1
@<SCITEGIC>ATOM_PROPERTY
Formal Charge
SciTegic.value.StringValue
1 0
2 0
3 0
4 0
5 0
6 0
7 0
8 0
9 0
10 0
11 0
12 0

@<SCITEGIC>ATOM_PROPERTY
pdb_tempFactor
SciTegic.value.DoubleValue
1 0.00
2 0.00
3 0.00
4 0.00
5 0.00
6 0.00
7 0.00
8 0.00
9 0.00
10 0.00
11 0.00
12 0.00

@<SCITEGIC>ATOM_PROPERTY
pdb_occupancy
SciTegic.value.DoubleValue
1 1.00
2 1.00
3 1.00
4 1.00
5 1.00
6 1.00
7 1.00
8 1.00
9 1.00
10 1.00
11 1.00
12 1.00

#	copyright 2023 drugdesign.org
#	Creation time:	2024-01-11T10:58:44Z

@<TRIPOS>MOLECULE
propanol_360.sd
   12    11     0 0 0
SMALL
USER_CHARGES


@<TRIPOS>ATOM
      1 H1            0.000000    0.000000    0.000000 H        1 SUBUNIT    0.2100
      2 C2            2.945200    1.441100   -0.000700 C.3      1 SUBUNIT   -0.0327
      3 C3            1.414900    1.350200    0.000000 C.3      1 SUBUNIT    0.0429
      4 O4            0.950000    0.000000    0.000000 O.3      1 SUBUNIT   -0.3962
      5 C5            3.496300    2.006000   -1.315000 C.3      1 SUBUNIT   -0.0632
      6 H6            3.197900    1.357900   -2.162700 H        1 SUBUNIT    0.0231
      7 H7            3.099100    3.025900   -1.487300 H        1 SUBUNIT    0.0231
      8 H8            4.602400    2.055000   -1.274300 H        1 SUBUNIT    0.0231
      9 H9            3.279600    2.074800    0.844500 H        1 SUBUNIT    0.0287
     10 H10           3.376600    0.436900    0.181300 H        1 SUBUNIT    0.0287
     11 H11           1.011300    1.881500   -0.884600 H        1 SUBUNIT    0.0563
     12 H12           1.012200    1.881200    0.885100 H        1 SUBUNIT    0.0563
@<TRIPOS>BOND
     1    1    4 1
     2    2    5 1
     3    2    3 1
     4    2    9 1
     5    2   10 1
     6    3    4 1
     7    3   11 1
     8    3   12 1
     9    5    6 1
    10    5    7 1
    11    5    8 1
@<SCITEGIC>ATOM_PROPERTY
Formal Charge
SciTegic.value.StringValue
1 0
2 0
3 0
4 0
5 0
6 0
7 0
8 0
9 0
10 0
11 0
12 0

@<SCITEGIC>ATOM_PROPERTY
pdb_tempFactor
SciTegic.value.DoubleValue
1 0.00
2 0.00
3 0.00
4 0.00
5 0.00
6 0.00
7 0.00
8 0.00
9 0.00
10 0.00
11 0.00
12 0.00

@<SCITEGIC>ATOM_PROPERTY
pdb_occupancy
SciTegic.value.DoubleValue
1 1.00
2 1.00
3 1.00
4 1.00
5 1.00
6 1.00
7 1.00
8 1.00
9 1.00
10 1.00
11 1.00
12 1.00

#	copyright 2023 drugdesign.org
#	Creation time:	2024-01-11T10:58:44Z

@<TRIPOS>MOLECULE
propanol_360.sd
   12    11     0 0 0
SMALL
USER_CHARGES


@<TRIPOS>ATOM
      1 H1            0.000000    0.000000    0.000000 H        1 SUBUNIT    0.2100
      2 C2            2.945200    1.441100   -0.000700 C.3      1 SUBUNIT   -0.0327
      3 C3            1.414900    1.350200    0.000000 C.3      1 SUBUNIT    0.0429
      4 O4            0.950000    0.000000    0.000000 O.3      1 SUBUNIT   -0.3962
      5 C5            3.494900    2.028800   -1.305500 C.3      1 SUBUNIT   -0.0632
      6 H6            3.195700    1.395600   -2.164100 H        1 SUBUNIT    0.0231
      7 H7            3.097600    3.051500   -1.459600 H        1 SUBUNIT    0.0231
      8 H8            4.601100    2.077100   -1.265100 H        1 SUBUNIT    0.0231
      9 H9            3.280400    2.060000    0.855100 H        1 SUBUNIT    0.0287
     10 H10           3.376700    0.433900    0.163300 H        1 SUBUNIT    0.0287
     11 H11           1.011300    1.881500   -0.884600 H        1 SUBUNIT    0.0563
     12 H12           1.012200    1.881200    0.885100 H        1 SUBUNIT    0.0563
@<TRIPOS>BOND
     1    1    4 1
     2    2    5 1
     3    2    3 1
     4    2    9 1
     5    2   10 1
     6    3    4 1
     7    3   11 1
     8    3   12 1
     9    5    6 1
    10    5    7 1
    11    5    8 1
@<SCITEGIC>ATOM_PROPERTY
Formal Charge
SciTegic.value.StringValue
1 0
2 0
3 0
4 0
5 0
6 0
7 0
8 0
9 0
10 0
11 0
12 0

@<SCITEGIC>ATOM_PROPERTY
pdb_tempFactor
SciTegic.value.DoubleValue
1 0.00
2 0.00
3 0.00
4 0.00
5 0.00
6 0.00
7 0.00
8 0.00
9 0.00
10 0.00
11 0.00
12 0.00

@<SCITEGIC>ATOM_PROPERTY
pdb_occupancy
SciTegic.value.DoubleValue
1 1.00
2 1.00
3 1.00
4 1.00
5 1.00
6 1.00
7 1.00
8 1.00
9 1.00
10 1.00
11 1.00
12 1.00

#	copyright 2023 drugdesign.org
#	Creation time:	2024-01-11T10:58:44Z

@<TRIPOS>MOLECULE
propanol_360.sd
   12    11     0 0 0
SMALL
USER_CHARGES


@<TRIPOS>ATOM
      1 H1            0.000000    0.000000    0.000000 H        1 SUBUNIT    0.2100
      2 C2            2.945200    1.441100   -0.000700 C.3      1 SUBUNIT   -0.0327
      3 C3            1.414900    1.350200    0.000000 C.3      1 SUBUNIT    0.0429
      4 O4            0.950000    0.000000    0.000000 O.3      1 SUBUNIT   -0.3962
      5 C5            3.493600    2.051400   -1.295600 C.3      1 SUBUNIT   -0.0632
      6 H6            3.193400    1.433300   -2.164800 H        1 SUBUNIT    0.0231
      7 H7            3.096100    3.076700   -1.431500 H        1 SUBUNIT    0.0231
      8 H8            4.599800    2.099000   -1.255500 H        1 SUBUNIT    0.0231
      9 H9            3.281300    2.044900    0.865400 H        1 SUBUNIT    0.0287
     10 H10           3.376900    0.431200    0.145300 H        1 SUBUNIT    0.0287
     11 H11           1.011300    1.881500   -0.884600 H        1 SUBUNIT    0.0563
     12 H12           1.012200    1.881200    0.885100 H        1 SUBUNIT    0.0563
@<TRIPOS>BOND
     1    1    4 1
     2    2    5 1
     3    2    3 1
     4    2    9 1
     5    2   10 1
     6    3    4 1
     7    3   11 1
     8    3   12 1
     9    5    6 1
    10    5    7 1
    11    5    8 1
@<SCITEGIC>ATOM_PROPERTY
Formal Charge
SciTegic.value.StringValue
1 0
2 0
3 0
4 0
5 0
6 0
7 0
8 0
9 0
10 0
11 0
12 0

@<SCITEGIC>ATOM_PROPERTY
pdb_tempFactor
SciTegic.value.DoubleValue
1 0.00
2 0.00
3 0.00
4 0.00
5 0.00
6 0.00
7 0.00
8 0.00
9 0.00
10 0.00
11 0.00
12 0.00

@<SCITEGIC>ATOM_PROPERTY
pdb_occupancy
SciTegic.value.DoubleValue
1 1.00
2 1.00
3 1.00
4 1.00
5 1.00
6 1.00
7 1.00
8 1.00
9 1.00
10 1.00
11 1.00
12 1.00

#	copyright 2023 drugdesign.org
#	Creation time:	2024-01-11T10:58:44Z

@<TRIPOS>MOLECULE
propanol_360.sd
   12    11     0 0 0
SMALL
USER_CHARGES


@<TRIPOS>ATOM
      1 H1            0.000000    0.000000    0.000000 H        1 SUBUNIT    0.2100
      2 C2            2.945200    1.441100   -0.000700 C.3      1 SUBUNIT   -0.0327
      3 C3            1.414900    1.350200    0.000000 C.3      1 SUBUNIT    0.0429
      4 O4            0.950000    0.000000    0.000000 O.3      1 SUBUNIT   -0.3962
      5 C5            3.492200    2.073900   -1.285400 C.3      1 SUBUNIT   -0.0632
      6 H6            3.191200    1.471000   -2.164900 H        1 SUBUNIT    0.0231
      7 H7            3.094700    3.101400   -1.403000 H        1 SUBUNIT    0.0231
      8 H8            4.598500    2.120800   -1.245600 H        1 SUBUNIT    0.0231
      9 H9            3.282200    2.029800    0.875400 H        1 SUBUNIT    0.0287
     10 H10           3.377000    0.428800    0.127200 H        1 SUBUNIT    0.0287
     11 H11           1.011300    1.881500   -0.884600 H        1 SUBUNIT    0.0563
     12 H12           1.012200    1.881200    0.885100 H        1 SUBUNIT    0.0563
@<TRIPOS>BOND
     1    1    4 1
     2    2    5 1
     3    2    3 1
     4    2    9 1
     5    2   10 1
     6    3    4 1
     7    3   11 1
     8    3   12 1
     9    5    6 1
    10    5    7 1
    11    5    8 1
@<SCITEGIC>ATOM_PROPERTY
Formal Charge
SciTegic.value.StringValue
1 0
2 0
3 0
4 0
5 0
6 0
7 0
8 0
9 0
10 0
11 0
12 0

@<SCITEGIC>ATOM_PROPERTY
pdb_tempFactor
SciTegic.value.DoubleValue
1 0.00
2 0.00
3 0.00
4 0.00
5 0.00
6 0.00
7 0.00
8 0.00
9 0.00
10 0.00
11 0.00
12 0.00

@<SCITEGIC>ATOM_PROPERTY
pdb_occupancy
SciTegic.value.DoubleValue
1 1.00
2 1.00
3 1.00
4 1.00
5 1.00
6 1.00
7 1.00
8 1.00
9 1.00
10 1.00
11 1.00
12 1.00

#	copyright 2023 drugdesign.org
#	Creation time:	2024-01-11T10:58:44Z

@<TRIPOS>MOLECULE
propanol_360.sd
   12    11     0 0 0
SMALL
USER_CHARGES


@<TRIPOS>ATOM
      1 H1            0.000000    0.000000    0.000000 H        1 SUBUNIT    0.2100
      2 C2            2.945200    1.441100   -0.000700 C.3      1 SUBUNIT   -0.0327
      3 C3            1.414900    1.350200    0.000000 C.3      1 SUBUNIT    0.0429
      4 O4            0.950000    0.000000    0.000000 O.3      1 SUBUNIT   -0.3962
      5 C5            3.490900    2.096200   -1.274700 C.3      1 SUBUNIT   -0.0632
      6 H6            3.188900    1.508700   -2.164300 H        1 SUBUNIT    0.0231
      7 H7            3.093200    3.125600   -1.374000 H        1 SUBUNIT    0.0231
      8 H8            4.597300    2.142400   -1.235300 H        1 SUBUNIT    0.0231
      9 H9            3.283200    2.014400    0.885200 H        1 SUBUNIT    0.0287
     10 H10           3.377100    0.426700    0.109100 H        1 SUBUNIT    0.0287
     11 H11           1.011300    1.881500   -0.884600 H        1 SUBUNIT    0.0563
     12 H12           1.012200    1.881200    0.885100 H        1 SUBUNIT    0.0563
@<TRIPOS>BOND
     1    1    4 1
     2    2    5 1
     3    2    3 1
     4    2    9 1
     5    2   10 1
     6    3    4 1
     7    3   11 1
     8    3   12 1
     9    5    6 1
    10    5    7 1
    11    5    8 1
@<SCITEGIC>ATOM_PROPERTY
Formal Charge
SciTegic.value.StringValue
1 0
2 0
3 0
4 0
5 0
6 0
7 0
8 0
9 0
10 0
11 0
12 0

@<SCITEGIC>ATOM_PROPERTY
pdb_tempFactor
SciTegic.value.DoubleValue
1 0.00
2 0.00
3 0.00
4 0.00
5 0.00
6 0.00
7 0.00
8 0.00
9 0.00
10 0.00
11 0.00
12 0.00

@<SCITEGIC>ATOM_PROPERTY
pdb_occupancy
SciTegic.value.DoubleValue
1 1.00
2 1.00
3 1.00
4 1.00
5 1.00
6 1.00
7 1.00
8 1.00
9 1.00
10 1.00
11 1.00
12 1.00

#	copyright 2023 drugdesign.org
#	Creation time:	2024-01-11T10:58:44Z

@<TRIPOS>MOLECULE
propanol_360.sd
   12    11     0 0 0
SMALL
USER_CHARGES


@<TRIPOS>ATOM
      1 H1            0.000000    0.000000    0.000000 H        1 SUBUNIT    0.2100
      2 C2            2.945200    1.441100   -0.000700 C.3      1 SUBUNIT   -0.0327
      3 C3            1.414900    1.350200    0.000000 C.3      1 SUBUNIT    0.0429
      4 O4            0.950000    0.000000    0.000000 O.3      1 SUBUNIT   -0.3962
      5 C5            3.489600    2.118300   -1.263700 C.3      1 SUBUNIT   -0.0632
      6 H6            3.186700    1.546400   -2.163000 H        1 SUBUNIT    0.0231
      7 H7            3.091800    3.149200   -1.344600 H        1 SUBUNIT    0.0231
      8 H8            4.596000    2.163800   -1.224600 H        1 SUBUNIT    0.0231
      9 H9            3.284100    1.998900    0.894700 H        1 SUBUNIT    0.0287
     10 H10           3.377200    0.424900    0.091000 H        1 SUBUNIT    0.0287
     11 H11           1.011300    1.881500   -0.884600 H        1 SUBUNIT    0.0563
     12 H12           1.012200    1.881200    0.885100 H        1 SUBUNIT    0.0563
@<TRIPOS>BOND
     1    1    4 1
     2    2    5 1
     3    2    3 1
     4    2    9 1
     5    2   10 1
     6    3    4 1
     7    3   11 1
     8    3   12 1
     9    5    6 1
    10    5    7 1
    11    5    8 1
@<SCITEGIC>ATOM_PROPERTY
Formal Charge
SciTegic.value.StringValue
1 0
2 0
3 0
4 0
5 0
6 0
7 0
8 0
9 0
10 0
11 0
12 0

@<SCITEGIC>ATOM_PROPERTY
pdb_tempFactor
SciTegic.value.DoubleValue
1 0.00
2 0.00
3 0.00
4 0.00
5 0.00
6 0.00
7 0.00
8 0.00
9 0.00
10 0.00
11 0.00
12 0.00

@<SCITEGIC>ATOM_PROPERTY
pdb_occupancy
SciTegic.value.DoubleValue
1 1.00
2 1.00
3 1.00
4 1.00
5 1.00
6 1.00
7 1.00
8 1.00
9 1.00
10 1.00
11 1.00
12 1.00

#	copyright 2023 drugdesign.org
#	Creation time:	2024-01-11T10:58:44Z

@<TRIPOS>MOLECULE
propanol_360.sd
   12    11     0 0 0
SMALL
USER_CHARGES


@<TRIPOS>ATOM
      1 H1            0.000000    0.000000    0.000000 H        1 SUBUNIT    0.2100
      2 C2            2.945200    1.441100   -0.000700 C.3      1 SUBUNIT   -0.0327
      3 C3            1.414900    1.350200    0.000000 C.3      1 SUBUNIT    0.0429
      4 O4            0.950000    0.000000    0.000000 O.3      1 SUBUNIT   -0.3962
      5 C5            3.488300    2.140200   -1.252300 C.3      1 SUBUNIT   -0.0632
      6 H6            3.184500    1.584000   -2.161100 H        1 SUBUNIT    0.0231
      7 H7            3.090500    3.172400   -1.314800 H        1 SUBUNIT    0.0231
      8 H8            4.594700    2.185000   -1.213500 H        1 SUBUNIT    0.0231
      9 H9            3.285000    1.983200    0.903900 H        1 SUBUNIT    0.0287
     10 H10           3.377300    0.423500    0.072800 H        1 SUBUNIT    0.0287
     11 H11           1.011300    1.881500   -0.884600 H        1 SUBUNIT    0.0563
     12 H12           1.012200    1.881200    0.885100 H        1 SUBUNIT    0.0563
@<TRIPOS>BOND
     1    1    4 1
     2    2    5 1
     3    2    3 1
     4    2    9 1
     5    2   10 1
     6    3    4 1
     7    3   11 1
     8    3   12 1
     9    5    6 1
    10    5    7 1
    11    5    8 1
@<SCITEGIC>ATOM_PROPERTY
Formal Charge
SciTegic.value.StringValue
1 0
2 0
3 0
4 0
5 0
6 0
7 0
8 0
9 0
10 0
11 0
12 0

@<SCITEGIC>ATOM_PROPERTY
pdb_tempFactor
SciTegic.value.DoubleValue
1 0.00
2 0.00
3 0.00
4 0.00
5 0.00
6 0.00
7 0.00
8 0.00
9 0.00
10 0.00
11 0.00
12 0.00

@<SCITEGIC>ATOM_PROPERTY
pdb_occupancy
SciTegic.value.DoubleValue
1 1.00
2 1.00
3 1.00
4 1.00
5 1.00
6 1.00
7 1.00
8 1.00
9 1.00
10 1.00
11 1.00
12 1.00

#	copyright 2023 drugdesign.org
#	Creation time:	2024-01-11T10:58:44Z

@<TRIPOS>MOLECULE
propanol_360.sd
   12    11     0 0 0
SMALL
USER_CHARGES


@<TRIPOS>ATOM
      1 H1            0.000000    0.000000    0.000000 H        1 SUBUNIT    0.2100
      2 C2            2.945200    1.441100   -0.000700 C.3      1 SUBUNIT   -0.0327
      3 C3            1.414900    1.350200    0.000000 C.3      1 SUBUNIT    0.0429
      4 O4            0.950000    0.000000    0.000000 O.3      1 SUBUNIT   -0.3962
      5 C5            3.487000    2.161900   -1.240400 C.3      1 SUBUNIT   -0.0632
      6 H6            3.182200    1.621700   -2.158600 H        1 SUBUNIT    0.0231
      7 H7            3.089200    3.195000   -1.284600 H        1 SUBUNIT    0.0231
      8 H8            4.593500    2.206000   -1.202100 H        1 SUBUNIT    0.0231
      9 H9            3.286000    1.967400    0.912900 H        1 SUBUNIT    0.0287
     10 H10           3.377400    0.422400    0.054600 H        1 SUBUNIT    0.0287
     11 H11           1.011300    1.881500   -0.884600 H        1 SUBUNIT    0.0563
     12 H12           1.012200    1.881200    0.885100 H        1 SUBUNIT    0.0563
@<TRIPOS>BOND
     1    1    4 1
     2    2    5 1
     3    2    3 1
     4    2    9 1
     5    2   10 1
     6    3    4 1
     7    3   11 1
     8    3   12 1
     9    5    6 1
    10    5    7 1
    11    5    8 1
@<SCITEGIC>ATOM_PROPERTY
Formal Charge
SciTegic.value.StringValue
1 0
2 0
3 0
4 0
5 0
6 0
7 0
8 0
9 0
10 0
11 0
12 0

@<SCITEGIC>ATOM_PROPERTY
pdb_tempFactor
SciTegic.value.DoubleValue
1 0.00
2 0.00
3 0.00
4 0.00
5 0.00
6 0.00
7 0.00
8 0.00
9 0.00
10 0.00
11 0.00
12 0.00

@<SCITEGIC>ATOM_PROPERTY
pdb_occupancy
SciTegic.value.DoubleValue
1 1.00
2 1.00
3 1.00
4 1.00
5 1.00
6 1.00
7 1.00
8 1.00
9 1.00
10 1.00
11 1.00
12 1.00

#	copyright 2023 drugdesign.org
#	Creation time:	2024-01-11T10:58:44Z

@<TRIPOS>MOLECULE
propanol_360.sd
   12    11     0 0 0
SMALL
USER_CHARGES


@<TRIPOS>ATOM
      1 H1            0.000000    0.000000    0.000000 H        1 SUBUNIT    0.2100
      2 C2            2.945200    1.441100   -0.000700 C.3      1 SUBUNIT   -0.0327
      3 C3            1.414900    1.350200    0.000000 C.3      1 SUBUNIT    0.0429
      4 O4            0.950000    0.000000    0.000000 O.3      1 SUBUNIT   -0.3962
      5 C5            3.485800    2.183400   -1.228300 C.3      1 SUBUNIT   -0.0632
      6 H6            3.180000    1.659200   -2.155300 H        1 SUBUNIT    0.0231
      7 H7            3.087900    3.217100   -1.253900 H        1 SUBUNIT    0.0231
      8 H8            4.592300    2.226800   -1.190300 H        1 SUBUNIT    0.0231
      9 H9            3.286900    1.951400    0.921600 H        1 SUBUNIT    0.0287
     10 H10           3.377400    0.421600    0.036400 H        1 SUBUNIT    0.0287
     11 H11           1.011300    1.881500   -0.884600 H        1 SUBUNIT    0.0563
     12 H12           1.012200    1.881200    0.885100 H        1 SUBUNIT    0.0563
@<TRIPOS>BOND
     1    1    4 1
     2    2    5 1
     3    2    3 1
     4    2    9 1
     5    2   10 1
     6    3    4 1
     7    3   11 1
     8    3   12 1
     9    5    6 1
    10    5    7 1
    11    5    8 1
@<SCITEGIC>ATOM_PROPERTY
Formal Charge
SciTegic.value.StringValue
1 0
2 0
3 0
4 0
5 0
6 0
7 0
8 0
9 0
10 0
11 0
12 0

@<SCITEGIC>ATOM_PROPERTY
pdb_tempFactor
SciTegic.value.DoubleValue
1 0.00
2 0.00
3 0.00
4 0.00
5 0.00
6 0.00
7 0.00
8 0.00
9 0.00
10 0.00
11 0.00
12 0.00

@<SCITEGIC>ATOM_PROPERTY
pdb_occupancy
SciTegic.value.DoubleValue
1 1.00
2 1.00
3 1.00
4 1.00
5 1.00
6 1.00
7 1.00
8 1.00
9 1.00
10 1.00
11 1.00
12 1.00

#	copyright 2023 drugdesign.org
#	Creation time:	2024-01-11T10:58:44Z

@<TRIPOS>MOLECULE
propanol_360.sd
   12    11     0 0 0
SMALL
USER_CHARGES


@<TRIPOS>ATOM
      1 H1            0.000000    0.000000    0.000000 H        1 SUBUNIT    0.2100
      2 C2            2.945200    1.441100   -0.000700 C.3      1 SUBUNIT   -0.0327
      3 C3            1.414900    1.350200    0.000000 C.3      1 SUBUNIT    0.0429
      4 O4            0.950000    0.000000    0.000000 O.3      1 SUBUNIT   -0.3962
      5 C5            3.484500    2.204600   -1.215700 C.3      1 SUBUNIT   -0.0632
      6 H6            3.177800    1.696700   -2.151500 H        1 SUBUNIT    0.0231
      7 H7            3.086600    3.238700   -1.223000 H        1 SUBUNIT    0.0231
      8 H8            4.591100    2.247400   -1.178100 H        1 SUBUNIT    0.0231
      9 H9            3.287900    1.935200    0.929900 H        1 SUBUNIT    0.0287
     10 H10           3.377400    0.421100    0.018200 H        1 SUBUNIT    0.0287
     11 H11           1.011300    1.881500   -0.884600 H        1 SUBUNIT    0.0563
     12 H12           1.012200    1.881200    0.885100 H        1 SUBUNIT    0.0563
@<TRIPOS>BOND
     1    1    4 1
     2    2    5 1
     3    2    3 1
     4    2    9 1
     5    2   10 1
     6    3    4 1
     7    3   11 1
     8    3   12 1
     9    5    6 1
    10    5    7 1
    11    5    8 1
@<SCITEGIC>ATOM_PROPERTY
Formal Charge
SciTegic.value.StringValue
1 0
2 0
3 0
4 0
5 0
6 0
7 0
8 0
9 0
10 0
11 0
12 0

@<SCITEGIC>ATOM_PROPERTY
pdb_tempFactor
SciTegic.value.DoubleValue
1 0.00
2 0.00
3 0.00
4 0.00
5 0.00
6 0.00
7 0.00
8 0.00
9 0.00
10 0.00
11 0.00
12 0.00

@<SCITEGIC>ATOM_PROPERTY
pdb_occupancy
SciTegic.value.DoubleValue
1 1.00
2 1.00
3 1.00
4 1.00
5 1.00
6 1.00
7 1.00
8 1.00
9 1.00
10 1.00
11 1.00
12 1.00

#	copyright 2023 drugdesign.org
#	Creation time:	2024-01-11T10:58:44Z

@<TRIPOS>MOLECULE
propanol_360.sd
   12    11     0 0 0
SMALL
USER_CHARGES


@<TRIPOS>ATOM
      1 H1            0.000000    0.000000    0.000000 H        1 SUBUNIT    0.2100
      2 C2            2.945200    1.441100   -0.000700 C.3      1 SUBUNIT   -0.0327
      3 C3            1.414900    1.350200    0.000000 C.3      1 SUBUNIT    0.0429
      4 O4            0.950000    0.000000    0.000000 O.3      1 SUBUNIT   -0.3962
      5 C5            3.483300    2.225700   -1.202800 C.3      1 SUBUNIT   -0.0632
      6 H6            3.175600    1.734200   -2.146900 H        1 SUBUNIT    0.0231
      7 H7            3.085400    3.259700   -1.191600 H        1 SUBUNIT    0.0231
      8 H8            4.589800    2.267800   -1.165600 H        1 SUBUNIT    0.0231
      9 H9            3.288900    1.918900    0.938100 H        1 SUBUNIT    0.0287
     10 H10           3.377400    0.420900    0.000000 H        1 SUBUNIT    0.0287
     11 H11           1.011300    1.881500   -0.884600 H        1 SUBUNIT    0.0563
     12 H12           1.012200    1.881200    0.885100 H        1 SUBUNIT    0.0563
@<TRIPOS>BOND
     1    1    4 1
     2    2    5 1
     3    2    3 1
     4    2    9 1
     5    2   10 1
     6    3    4 1
     7    3   11 1
     8    3   12 1
     9    5    6 1
    10    5    7 1
    11    5    8 1
@<SCITEGIC>ATOM_PROPERTY
Formal Charge
SciTegic.value.StringValue
1 0
2 0
3 0
4 0
5 0
6 0
7 0
8 0
9 0
10 0
11 0
12 0

@<SCITEGIC>ATOM_PROPERTY
pdb_tempFactor
SciTegic.value.DoubleValue
1 0.00
2 0.00
3 0.00
4 0.00
5 0.00
6 0.00
7 0.00
8 0.00
9 0.00
10 0.00
11 0.00
12 0.00

@<SCITEGIC>ATOM_PROPERTY
pdb_occupancy
SciTegic.value.DoubleValue
1 1.00
2 1.00
3 1.00
4 1.00
5 1.00
6 1.00
7 1.00
8 1.00
9 1.00
10 1.00
11 1.00
12 1.00

#	copyright 2023 drugdesign.org
#	Creation time:	2024-01-11T10:58:44Z

@<TRIPOS>MOLECULE
propanol_360.sd
   12    11     0 0 0
SMALL
USER_CHARGES


@<TRIPOS>ATOM
      1 H1            0.000000    0.000000    0.000000 H        1 SUBUNIT    0.2100
      2 C2            2.945200    1.441100   -0.000700 C.3      1 SUBUNIT   -0.0327
      3 C3            1.414900    1.350200    0.000000 C.3      1 SUBUNIT    0.0429
      4 O4            0.950000    0.000000    0.000000 O.3      1 SUBUNIT   -0.3962
      5 C5            3.482000    2.246500   -1.189500 C.3      1 SUBUNIT   -0.0632
      6 H6            3.173300    1.771500   -2.141700 H        1 SUBUNIT    0.0231
      7 H7            3.084100    3.280200   -1.159900 H        1 SUBUNIT    0.0231
      8 H8            4.588700    2.288000   -1.152700 H        1 SUBUNIT    0.0231
      9 H9            3.289800    1.902500    0.945900 H        1 SUBUNIT    0.0287
     10 H10           3.377400    0.421000   -0.018200 H        1 SUBUNIT    0.0287
     11 H11           1.011300    1.881500   -0.884600 H        1 SUBUNIT    0.0563
     12 H12           1.012200    1.881200    0.885100 H        1 SUBUNIT    0.0563
@<TRIPOS>BOND
     1    1    4 1
     2    2    5 1
     3    2    3 1
     4    2    9 1
     5    2   10 1
     6    3    4 1
     7    3   11 1
     8    3   12 1
     9    5    6 1
    10    5    7 1
    11    5    8 1
@<SCITEGIC>ATOM_PROPERTY
Formal Charge
SciTegic.value.StringValue
1 0
2 0
3 0
4 0
5 0
6 0
7 0
8 0
9 0
10 0
11 0
12 0

@<SCITEGIC>ATOM_PROPERTY
pdb_tempFactor
SciTegic.value.DoubleValue
1 0.00
2 0.00
3 0.00
4 0.00
5 0.00
6 0.00
7 0.00
8 0.00
9 0.00
10 0.00
11 0.00
12 0.00

@<SCITEGIC>ATOM_PROPERTY
pdb_occupancy
SciTegic.value.DoubleValue
1 1.00
2 1.00
3 1.00
4 1.00
5 1.00
6 1.00
7 1.00
8 1.00
9 1.00
10 1.00
11 1.00
12 1.00

#	copyright 2023 drugdesign.org
#	Creation time:	2024-01-11T10:58:44Z

@<TRIPOS>MOLECULE
propanol_360.sd
   12    11     0 0 0
SMALL
USER_CHARGES


@<TRIPOS>ATOM
      1 H1            0.000000    0.000000    0.000000 H        1 SUBUNIT    0.2100
      2 C2            2.945200    1.441100   -0.000700 C.3      1 SUBUNIT   -0.0327
      3 C3            1.414900    1.350200    0.000000 C.3      1 SUBUNIT    0.0429
      4 O4            0.950000    0.000000    0.000000 O.3      1 SUBUNIT   -0.3962
      5 C5            3.480800    2.267100   -1.175800 C.3      1 SUBUNIT   -0.0632
      6 H6            3.171100    1.808800   -2.135900 H        1 SUBUNIT    0.0231
      7 H7            3.083000    3.300100   -1.127800 H        1 SUBUNIT    0.0231
      8 H8            4.587500    2.307900   -1.139500 H        1 SUBUNIT    0.0231
      9 H9            3.290800    1.886000    0.953400 H        1 SUBUNIT    0.0287
     10 H10           3.377400    0.421500   -0.036500 H        1 SUBUNIT    0.0287
     11 H11           1.011300    1.881500   -0.884600 H        1 SUBUNIT    0.0563
     12 H12           1.012200    1.881200    0.885100 H        1 SUBUNIT    0.0563
@<TRIPOS>BOND
     1    1    4 1
     2    2    5 1
     3    2    3 1
     4    2    9 1
     5    2   10 1
     6    3    4 1
     7    3   11 1
     8    3   12 1
     9    5    6 1
    10    5    7 1
    11    5    8 1
@<SCITEGIC>ATOM_PROPERTY
Formal Charge
SciTegic.value.StringValue
1 0
2 0
3 0
4 0
5 0
6 0
7 0
8 0
9 0
10 0
11 0
12 0

@<SCITEGIC>ATOM_PROPERTY
pdb_tempFactor
SciTegic.value.DoubleValue
1 0.00
2 0.00
3 0.00
4 0.00
5 0.00
6 0.00
7 0.00
8 0.00
9 0.00
10 0.00
11 0.00
12 0.00

@<SCITEGIC>ATOM_PROPERTY
pdb_occupancy
SciTegic.value.DoubleValue
1 1.00
2 1.00
3 1.00
4 1.00
5 1.00
6 1.00
7 1.00
8 1.00
9 1.00
10 1.00
11 1.00
12 1.00

#	copyright 2023 drugdesign.org
#	Creation time:	2024-01-11T10:58:44Z

@<TRIPOS>MOLECULE
propanol_360.sd
   12    11     0 0 0
SMALL
USER_CHARGES


@<TRIPOS>ATOM
      1 H1            0.000000    0.000000    0.000000 H        1 SUBUNIT    0.2100
      2 C2            2.945200    1.441100   -0.000700 C.3      1 SUBUNIT   -0.0327
      3 C3            1.414900    1.350200    0.000000 C.3      1 SUBUNIT    0.0429
      4 O4            0.950000    0.000000    0.000000 O.3      1 SUBUNIT   -0.3962
      5 C5            3.479600    2.287400   -1.161800 C.3      1 SUBUNIT   -0.0632
      6 H6            3.168900    1.845900   -2.129400 H        1 SUBUNIT    0.0231
      7 H7            3.081800    3.319400   -1.095400 H        1 SUBUNIT    0.0231
      8 H8            4.586300    2.327600   -1.125900 H        1 SUBUNIT    0.0231
      9 H9            3.291800    1.869300    0.960700 H        1 SUBUNIT    0.0287
     10 H10           3.377300    0.422300   -0.054700 H        1 SUBUNIT    0.0287
     11 H11           1.011300    1.881500   -0.884600 H        1 SUBUNIT    0.0563
     12 H12           1.012200    1.881200    0.885100 H        1 SUBUNIT    0.0563
@<TRIPOS>BOND
     1    1    4 1
     2    2    5 1
     3    2    3 1
     4    2    9 1
     5    2   10 1
     6    3    4 1
     7    3   11 1
     8    3   12 1
     9    5    6 1
    10    5    7 1
    11    5    8 1
@<SCITEGIC>ATOM_PROPERTY
Formal Charge
SciTegic.value.StringValue
1 0
2 0
3 0
4 0
5 0
6 0
7 0
8 0
9 0
10 0
11 0
12 0

@<SCITEGIC>ATOM_PROPERTY
pdb_tempFactor
SciTegic.value.DoubleValue
1 0.00
2 0.00
3 0.00
4 0.00
5 0.00
6 0.00
7 0.00
8 0.00
9 0.00
10 0.00
11 0.00
12 0.00

@<SCITEGIC>ATOM_PROPERTY
pdb_occupancy
SciTegic.value.DoubleValue
1 1.00
2 1.00
3 1.00
4 1.00
5 1.00
6 1.00
7 1.00
8 1.00
9 1.00
10 1.00
11 1.00
12 1.00

#	copyright 2023 drugdesign.org
#	Creation time:	2024-01-11T10:58:44Z

@<TRIPOS>MOLECULE
propanol_360.sd
   12    11     0 0 0
SMALL
USER_CHARGES


@<TRIPOS>ATOM
      1 H1            0.000000    0.000000    0.000000 H        1 SUBUNIT    0.2100
      2 C2            2.945200    1.441100   -0.000700 C.3      1 SUBUNIT   -0.0327
      3 C3            1.414900    1.350200    0.000000 C.3      1 SUBUNIT    0.0429
      4 O4            0.950000    0.000000    0.000000 O.3      1 SUBUNIT   -0.3962
      5 C5            3.478400    2.307500   -1.147400 C.3      1 SUBUNIT   -0.0632
      6 H6            3.166700    1.882900   -2.122200 H        1 SUBUNIT    0.0231
      7 H7            3.080700    3.338200   -1.062700 H        1 SUBUNIT    0.0231
      8 H8            4.585200    2.347100   -1.112000 H        1 SUBUNIT    0.0231
      9 H9            3.292800    1.852500    0.967600 H        1 SUBUNIT    0.0287
     10 H10           3.377300    0.423400   -0.072900 H        1 SUBUNIT    0.0287
     11 H11           1.011300    1.881500   -0.884600 H        1 SUBUNIT    0.0563
     12 H12           1.012200    1.881200    0.885100 H        1 SUBUNIT    0.0563
@<TRIPOS>BOND
     1    1    4 1
     2    2    5 1
     3    2    3 1
     4    2    9 1
     5    2   10 1
     6    3    4 1
     7    3   11 1
     8    3   12 1
     9    5    6 1
    10    5    7 1
    11    5    8 1
@<SCITEGIC>ATOM_PROPERTY
Formal Charge
SciTegic.value.StringValue
1 0
2 0
3 0
4 0
5 0
6 0
7 0
8 0
9 0
10 0
11 0
12 0

@<SCITEGIC>ATOM_PROPERTY
pdb_tempFactor
SciTegic.value.DoubleValue
1 0.00
2 0.00
3 0.00
4 0.00
5 0.00
6 0.00
7 0.00
8 0.00
9 0.00
10 0.00
11 0.00
12 0.00

@<SCITEGIC>ATOM_PROPERTY
pdb_occupancy
SciTegic.value.DoubleValue
1 1.00
2 1.00
3 1.00
4 1.00
5 1.00
6 1.00
7 1.00
8 1.00
9 1.00
10 1.00
11 1.00
12 1.00

#	copyright 2023 drugdesign.org
#	Creation time:	2024-01-11T10:58:44Z

@<TRIPOS>MOLECULE
propanol_360.sd
   12    11     0 0 0
SMALL
USER_CHARGES


@<TRIPOS>ATOM
      1 H1            0.000000    0.000000    0.000000 H        1 SUBUNIT    0.2100
      2 C2            2.945200    1.441100   -0.000700 C.3      1 SUBUNIT   -0.0327
      3 C3            1.414900    1.350200    0.000000 C.3      1 SUBUNIT    0.0429
      4 O4            0.950000    0.000000    0.000000 O.3      1 SUBUNIT   -0.3962
      5 C5            3.477300    2.327400   -1.132700 C.3      1 SUBUNIT   -0.0632
      6 H6            3.164500    1.919800   -2.114400 H        1 SUBUNIT    0.0231
      7 H7            3.079700    3.356500   -1.029600 H        1 SUBUNIT    0.0231
      8 H8            4.584000    2.366300   -1.097700 H        1 SUBUNIT    0.0231
      9 H9            3.293800    1.835500    0.974300 H        1 SUBUNIT    0.0287
     10 H10           3.377200    0.424800   -0.091000 H        1 SUBUNIT    0.0287
     11 H11           1.011300    1.881500   -0.884600 H        1 SUBUNIT    0.0563
     12 H12           1.012200    1.881200    0.885100 H        1 SUBUNIT    0.0563
@<TRIPOS>BOND
     1    1    4 1
     2    2    5 1
     3    2    3 1
     4    2    9 1
     5    2   10 1
     6    3    4 1
     7    3   11 1
     8    3   12 1
     9    5    6 1
    10    5    7 1
    11    5    8 1
@<SCITEGIC>ATOM_PROPERTY
Formal Charge
SciTegic.value.StringValue
1 0
2 0
3 0
4 0
5 0
6 0
7 0
8 0
9 0
10 0
11 0
12 0

@<SCITEGIC>ATOM_PROPERTY
pdb_tempFactor
SciTegic.value.DoubleValue
1 0.00
2 0.00
3 0.00
4 0.00
5 0.00
6 0.00
7 0.00
8 0.00
9 0.00
10 0.00
11 0.00
12 0.00

@<SCITEGIC>ATOM_PROPERTY
pdb_occupancy
SciTegic.value.DoubleValue
1 1.00
2 1.00
3 1.00
4 1.00
5 1.00
6 1.00
7 1.00
8 1.00
9 1.00
10 1.00
11 1.00
12 1.00

#	copyright 2023 drugdesign.org
#	Creation time:	2024-01-11T10:58:44Z

@<TRIPOS>MOLECULE
propanol_360.sd
   12    11     0 0 0
SMALL
USER_CHARGES


@<TRIPOS>ATOM
      1 H1            0.000000    0.000000    0.000000 H        1 SUBUNIT    0.2100
      2 C2            2.945200    1.441100   -0.000700 C.3      1 SUBUNIT   -0.0327
      3 C3            1.414900    1.350200    0.000000 C.3      1 SUBUNIT    0.0429
      4 O4            0.950000    0.000000    0.000000 O.3      1 SUBUNIT   -0.3962
      5 C5            3.476100    2.347000   -1.117700 C.3      1 SUBUNIT   -0.0632
      6 H6            3.162400    1.956600   -2.106000 H        1 SUBUNIT    0.0231
      7 H7            3.078600    3.374100   -0.996200 H        1 SUBUNIT    0.0231
      8 H8            4.582900    2.385300   -1.083100 H        1 SUBUNIT    0.0231
      9 H9            3.294800    1.818500    0.980600 H        1 SUBUNIT    0.0287
     10 H10           3.377100    0.426500   -0.109200 H        1 SUBUNIT    0.0287
     11 H11           1.011300    1.881500   -0.884600 H        1 SUBUNIT    0.0563
     12 H12           1.012200    1.881200    0.885100 H        1 SUBUNIT    0.0563
@<TRIPOS>BOND
     1    1    4 1
     2    2    5 1
     3    2    3 1
     4    2    9 1
     5    2   10 1
     6    3    4 1
     7    3   11 1
     8    3   12 1
     9    5    6 1
    10    5    7 1
    11    5    8 1
@<SCITEGIC>ATOM_PROPERTY
Formal Charge
SciTegic.value.StringValue
1 0
2 0
3 0
4 0
5 0
6 0
7 0
8 0
9 0
10 0
11 0
12 0

@<SCITEGIC>ATOM_PROPERTY
pdb_tempFactor
SciTegic.value.DoubleValue
1 0.00
2 0.00
3 0.00
4 0.00
5 0.00
6 0.00
7 0.00
8 0.00
9 0.00
10 0.00
11 0.00
12 0.00

@<SCITEGIC>ATOM_PROPERTY
pdb_occupancy
SciTegic.value.DoubleValue
1 1.00
2 1.00
3 1.00
4 1.00
5 1.00
6 1.00
7 1.00
8 1.00
9 1.00
10 1.00
11 1.00
12 1.00

#	copyright 2023 drugdesign.org
#	Creation time:	2024-01-11T10:58:44Z

@<TRIPOS>MOLECULE
propanol_360.sd
   12    11     0 0 0
SMALL
USER_CHARGES


@<TRIPOS>ATOM
      1 H1            0.000000    0.000000    0.000000 H        1 SUBUNIT    0.2100
      2 C2            2.945200    1.441100   -0.000700 C.3      1 SUBUNIT   -0.0327
      3 C3            1.414900    1.350200    0.000000 C.3      1 SUBUNIT    0.0429
      4 O4            0.950000    0.000000    0.000000 O.3      1 SUBUNIT   -0.3962
      5 C5            3.475000    2.366300   -1.102300 C.3      1 SUBUNIT   -0.0632
      6 H6            3.160200    1.993200   -2.096900 H        1 SUBUNIT    0.0231
      7 H7            3.077600    3.391100   -0.962500 H        1 SUBUNIT    0.0231
      8 H8            4.581800    2.404000   -1.068200 H        1 SUBUNIT    0.0231
      9 H9            3.295900    1.801300    0.986700 H        1 SUBUNIT    0.0287
     10 H10           3.376900    0.428600   -0.127300 H        1 SUBUNIT    0.0287
     11 H11           1.011300    1.881500   -0.884600 H        1 SUBUNIT    0.0563
     12 H12           1.012200    1.881200    0.885100 H        1 SUBUNIT    0.0563
@<TRIPOS>BOND
     1    1    4 1
     2    2    5 1
     3    2    3 1
     4    2    9 1
     5    2   10 1
     6    3    4 1
     7    3   11 1
     8    3   12 1
     9    5    6 1
    10    5    7 1
    11    5    8 1
@<SCITEGIC>ATOM_PROPERTY
Formal Charge
SciTegic.value.StringValue
1 0
2 0
3 0
4 0
5 0
6 0
7 0
8 0
9 0
10 0
11 0
12 0

@<SCITEGIC>ATOM_PROPERTY
pdb_tempFactor
SciTegic.value.DoubleValue
1 0.00
2 0.00
3 0.00
4 0.00
5 0.00
6 0.00
7 0.00
8 0.00
9 0.00
10 0.00
11 0.00
12 0.00

@<SCITEGIC>ATOM_PROPERTY
pdb_occupancy
SciTegic.value.DoubleValue
1 1.00
2 1.00
3 1.00
4 1.00
5 1.00
6 1.00
7 1.00
8 1.00
9 1.00
10 1.00
11 1.00
12 1.00

#	copyright 2023 drugdesign.org
#	Creation time:	2024-01-11T10:58:44Z

@<TRIPOS>MOLECULE
propanol_360.sd
   12    11     0 0 0
SMALL
USER_CHARGES


@<TRIPOS>ATOM
      1 H1            0.000000    0.000000    0.000000 H        1 SUBUNIT    0.2100
      2 C2            2.945200    1.441100   -0.000700 C.3      1 SUBUNIT   -0.0327
      3 C3            1.414900    1.350200    0.000000 C.3      1 SUBUNIT    0.0429
      4 O4            0.950000    0.000000    0.000000 O.3      1 SUBUNIT   -0.3962
      5 C5            3.473800    2.385400   -1.086500 C.3      1 SUBUNIT   -0.0632
      6 H6            3.158000    2.029600   -2.087200 H        1 SUBUNIT    0.0231
      7 H7            3.076700    3.407600   -0.928500 H        1 SUBUNIT    0.0231
      8 H8            4.580700    2.422500   -1.053000 H        1 SUBUNIT    0.0231
      9 H9            3.296900    1.784100    0.992500 H        1 SUBUNIT    0.0287
     10 H10           3.376800    0.430900   -0.145300 H        1 SUBUNIT    0.0287
     11 H11           1.011300    1.881500   -0.884600 H        1 SUBUNIT    0.0563
     12 H12           1.012200    1.881200    0.885100 H        1 SUBUNIT    0.0563
@<TRIPOS>BOND
     1    1    4 1
     2    2    5 1
     3    2    3 1
     4    2    9 1
     5    2   10 1
     6    3    4 1
     7    3   11 1
     8    3   12 1
     9    5    6 1
    10    5    7 1
    11    5    8 1
@<SCITEGIC>ATOM_PROPERTY
Formal Charge
SciTegic.value.StringValue
1 0
2 0
3 0
4 0
5 0
6 0
7 0
8 0
9 0
10 0
11 0
12 0

@<SCITEGIC>ATOM_PROPERTY
pdb_tempFactor
SciTegic.value.DoubleValue
1 0.00
2 0.00
3 0.00
4 0.00
5 0.00
6 0.00
7 0.00
8 0.00
9 0.00
10 0.00
11 0.00
12 0.00

@<SCITEGIC>ATOM_PROPERTY
pdb_occupancy
SciTegic.value.DoubleValue
1 1.00
2 1.00
3 1.00
4 1.00
5 1.00
6 1.00
7 1.00
8 1.00
9 1.00
10 1.00
11 1.00
12 1.00

#	copyright 2023 drugdesign.org
#	Creation time:	2024-01-11T10:58:44Z

@<TRIPOS>MOLECULE
propanol_360.sd
   12    11     0 0 0
SMALL
USER_CHARGES


@<TRIPOS>ATOM
      1 H1            0.000000    0.000000    0.000000 H        1 SUBUNIT    0.2100
      2 C2            2.945200    1.441100   -0.000700 C.3      1 SUBUNIT   -0.0327
      3 C3            1.414900    1.350200    0.000000 C.3      1 SUBUNIT    0.0429
      4 O4            0.950000    0.000000    0.000000 O.3      1 SUBUNIT   -0.3962
      5 C5            3.472700    2.404100   -1.070500 C.3      1 SUBUNIT   -0.0632
      6 H6            3.155900    2.065900   -2.076900 H        1 SUBUNIT    0.0231
      7 H7            3.075800    3.423500   -0.894300 H        1 SUBUNIT    0.0231
      8 H8            4.579600    2.440700   -1.037400 H        1 SUBUNIT    0.0231
      9 H9            3.297900    1.766700    0.997900 H        1 SUBUNIT    0.0287
     10 H10           3.376600    0.433600   -0.163400 H        1 SUBUNIT    0.0287
     11 H11           1.011300    1.881500   -0.884600 H        1 SUBUNIT    0.0563
     12 H12           1.012200    1.881200    0.885100 H        1 SUBUNIT    0.0563
@<TRIPOS>BOND
     1    1    4 1
     2    2    5 1
     3    2    3 1
     4    2    9 1
     5    2   10 1
     6    3    4 1
     7    3   11 1
     8    3   12 1
     9    5    6 1
    10    5    7 1
    11    5    8 1
@<SCITEGIC>ATOM_PROPERTY
Formal Charge
SciTegic.value.StringValue
1 0
2 0
3 0
4 0
5 0
6 0
7 0
8 0
9 0
10 0
11 0
12 0

@<SCITEGIC>ATOM_PROPERTY
pdb_tempFactor
SciTegic.value.DoubleValue
1 0.00
2 0.00
3 0.00
4 0.00
5 0.00
6 0.00
7 0.00
8 0.00
9 0.00
10 0.00
11 0.00
12 0.00

@<SCITEGIC>ATOM_PROPERTY
pdb_occupancy
SciTegic.value.DoubleValue
1 1.00
2 1.00
3 1.00
4 1.00
5 1.00
6 1.00
7 1.00
8 1.00
9 1.00
10 1.00
11 1.00
12 1.00

#	copyright 2023 drugdesign.org
#	Creation time:	2024-01-11T10:58:44Z

@<TRIPOS>MOLECULE
propanol_360.sd
   12    11     0 0 0
SMALL
USER_CHARGES


@<TRIPOS>ATOM
      1 H1            0.000000    0.000000    0.000000 H        1 SUBUNIT    0.2100
      2 C2            2.945200    1.441100   -0.000700 C.3      1 SUBUNIT   -0.0327
      3 C3            1.414900    1.350200    0.000000 C.3      1 SUBUNIT    0.0429
      4 O4            0.950000    0.000000    0.000000 O.3      1 SUBUNIT   -0.3962
      5 C5            3.471600    2.422600   -1.054100 C.3      1 SUBUNIT   -0.0632
      6 H6            3.153700    2.101900   -2.065900 H        1 SUBUNIT    0.0231
      7 H7            3.074900    3.438700   -0.859700 H        1 SUBUNIT    0.0231
      8 H8            4.578600    2.458600   -1.021500 H        1 SUBUNIT    0.0231
      9 H9            3.299000    1.749300    1.003100 H        1 SUBUNIT    0.0287
     10 H10           3.376400    0.436600   -0.181300 H        1 SUBUNIT    0.0287
     11 H11           1.011300    1.881500   -0.884600 H        1 SUBUNIT    0.0563
     12 H12           1.012200    1.881200    0.885100 H        1 SUBUNIT    0.0563
@<TRIPOS>BOND
     1    1    4 1
     2    2    5 1
     3    2    3 1
     4    2    9 1
     5    2   10 1
     6    3    4 1
     7    3   11 1
     8    3   12 1
     9    5    6 1
    10    5    7 1
    11    5    8 1
@<SCITEGIC>ATOM_PROPERTY
Formal Charge
SciTegic.value.StringValue
1 0
2 0
3 0
4 0
5 0
6 0
7 0
8 0
9 0
10 0
11 0
12 0

@<SCITEGIC>ATOM_PROPERTY
pdb_tempFactor
SciTegic.value.DoubleValue
1 0.00
2 0.00
3 0.00
4 0.00
5 0.00
6 0.00
7 0.00
8 0.00
9 0.00
10 0.00
11 0.00
12 0.00

@<SCITEGIC>ATOM_PROPERTY
pdb_occupancy
SciTegic.value.DoubleValue
1 1.00
2 1.00
3 1.00
4 1.00
5 1.00
6 1.00
7 1.00
8 1.00
9 1.00
10 1.00
11 1.00
12 1.00

#	copyright 2023 drugdesign.org
#	Creation time:	2024-01-11T10:58:44Z

@<TRIPOS>MOLECULE
propanol_360.sd
   12    11     0 0 0
SMALL
USER_CHARGES


@<TRIPOS>ATOM
      1 H1            0.000000    0.000000    0.000000 H        1 SUBUNIT    0.2100
      2 C2            2.945200    1.441100   -0.000700 C.3      1 SUBUNIT   -0.0327
      3 C3            1.414900    1.350200    0.000000 C.3      1 SUBUNIT    0.0429
      4 O4            0.950000    0.000000    0.000000 O.3      1 SUBUNIT   -0.3962
      5 C5            3.470600    2.440800   -1.037300 C.3      1 SUBUNIT   -0.0632
      6 H6            3.151600    2.137800   -2.054300 H        1 SUBUNIT    0.0231
      7 H7            3.074000    3.453400   -0.824900 H        1 SUBUNIT    0.0231
      8 H8            4.577500    2.476200   -1.005300 H        1 SUBUNIT    0.0231
      9 H9            3.300000    1.731700    1.007900 H        1 SUBUNIT    0.0287
     10 H10           3.376200    0.439900   -0.199300 H        1 SUBUNIT    0.0287
     11 H11           1.011300    1.881500   -0.884600 H        1 SUBUNIT    0.0563
     12 H12           1.012200    1.881200    0.885100 H        1 SUBUNIT    0.0563
@<TRIPOS>BOND
     1    1    4 1
     2    2    5 1
     3    2    3 1
     4    2    9 1
     5    2   10 1
     6    3    4 1
     7    3   11 1
     8    3   12 1
     9    5    6 1
    10    5    7 1
    11    5    8 1
@<SCITEGIC>ATOM_PROPERTY
Formal Charge
SciTegic.value.StringValue
1 0
2 0
3 0
4 0
5 0
6 0
7 0
8 0
9 0
10 0
11 0
12 0

@<SCITEGIC>ATOM_PROPERTY
pdb_tempFactor
SciTegic.value.DoubleValue
1 0.00
2 0.00
3 0.00
4 0.00
5 0.00
6 0.00
7 0.00
8 0.00
9 0.00
10 0.00
11 0.00
12 0.00

@<SCITEGIC>ATOM_PROPERTY
pdb_occupancy
SciTegic.value.DoubleValue
1 1.00
2 1.00
3 1.00
4 1.00
5 1.00
6 1.00
7 1.00
8 1.00
9 1.00
10 1.00
11 1.00
12 1.00

#	copyright 2023 drugdesign.org
#	Creation time:	2024-01-11T10:58:44Z

@<TRIPOS>MOLECULE
propanol_360.sd
   12    11     0 0 0
SMALL
USER_CHARGES


@<TRIPOS>ATOM
      1 H1            0.000000    0.000000    0.000000 H        1 SUBUNIT    0.2100
      2 C2            2.945200    1.441100   -0.000700 C.3      1 SUBUNIT   -0.0327
      3 C3            1.414900    1.350200    0.000000 C.3      1 SUBUNIT    0.0429
      4 O4            0.950000    0.000000    0.000000 O.3      1 SUBUNIT   -0.3962
      5 C5            3.469500    2.458700   -1.020300 C.3      1 SUBUNIT   -0.0632
      6 H6            3.149500    2.173500   -2.042000 H        1 SUBUNIT    0.0231
      7 H7            3.073200    3.467400   -0.789900 H        1 SUBUNIT    0.0231
      8 H8            4.576500    2.493500   -0.988800 H        1 SUBUNIT    0.0231
      9 H9            3.301100    1.714100    1.012500 H        1 SUBUNIT    0.0287
     10 H10           3.376000    0.443500   -0.217100 H        1 SUBUNIT    0.0287
     11 H11           1.011300    1.881500   -0.884600 H        1 SUBUNIT    0.0563
     12 H12           1.012200    1.881200    0.885100 H        1 SUBUNIT    0.0563
@<TRIPOS>BOND
     1    1    4 1
     2    2    5 1
     3    2    3 1
     4    2    9 1
     5    2   10 1
     6    3    4 1
     7    3   11 1
     8    3   12 1
     9    5    6 1
    10    5    7 1
    11    5    8 1
@<SCITEGIC>ATOM_PROPERTY
Formal Charge
SciTegic.value.StringValue
1 0
2 0
3 0
4 0
5 0
6 0
7 0
8 0
9 0
10 0
11 0
12 0

@<SCITEGIC>ATOM_PROPERTY
pdb_tempFactor
SciTegic.value.DoubleValue
1 0.00
2 0.00
3 0.00
4 0.00
5 0.00
6 0.00
7 0.00
8 0.00
9 0.00
10 0.00
11 0.00
12 0.00

@<SCITEGIC>ATOM_PROPERTY
pdb_occupancy
SciTegic.value.DoubleValue
1 1.00
2 1.00
3 1.00
4 1.00
5 1.00
6 1.00
7 1.00
8 1.00
9 1.00
10 1.00
11 1.00
12 1.00

#	copyright 2023 drugdesign.org
#	Creation time:	2024-01-11T10:58:44Z

@<TRIPOS>MOLECULE
propanol_360.sd
   12    11     0 0 0
SMALL
USER_CHARGES


@<TRIPOS>ATOM
      1 H1            0.000000    0.000000    0.000000 H        1 SUBUNIT    0.2100
      2 C2            2.945200    1.441100   -0.000700 C.3      1 SUBUNIT   -0.0327
      3 C3            1.414900    1.350200    0.000000 C.3      1 SUBUNIT    0.0429
      4 O4            0.950000    0.000000    0.000000 O.3      1 SUBUNIT   -0.3962
      5 C5            3.468500    2.476300   -1.003000 C.3      1 SUBUNIT   -0.0632
      6 H6            3.147400    2.208900   -2.029200 H        1 SUBUNIT    0.0231
      7 H7            3.072400    3.480900   -0.754600 H        1 SUBUNIT    0.0231
      8 H8            4.575500    2.510600   -0.972000 H        1 SUBUNIT    0.0231
      9 H9            3.302100    1.696400    1.016700 H        1 SUBUNIT    0.0287
     10 H10           3.375800    0.447400   -0.234900 H        1 SUBUNIT    0.0287
     11 H11           1.011300    1.881500   -0.884600 H        1 SUBUNIT    0.0563
     12 H12           1.012200    1.881200    0.885100 H        1 SUBUNIT    0.0563
@<TRIPOS>BOND
     1    1    4 1
     2    2    5 1
     3    2    3 1
     4    2    9 1
     5    2   10 1
     6    3    4 1
     7    3   11 1
     8    3   12 1
     9    5    6 1
    10    5    7 1
    11    5    8 1
@<SCITEGIC>ATOM_PROPERTY
Formal Charge
SciTegic.value.StringValue
1 0
2 0
3 0
4 0
5 0
6 0
7 0
8 0
9 0
10 0
11 0
12 0

@<SCITEGIC>ATOM_PROPERTY
pdb_tempFactor
SciTegic.value.DoubleValue
1 0.00
2 0.00
3 0.00
4 0.00
5 0.00
6 0.00
7 0.00
8 0.00
9 0.00
10 0.00
11 0.00
12 0.00

@<SCITEGIC>ATOM_PROPERTY
pdb_occupancy
SciTegic.value.DoubleValue
1 1.00
2 1.00
3 1.00
4 1.00
5 1.00
6 1.00
7 1.00
8 1.00
9 1.00
10 1.00
11 1.00
12 1.00

#	copyright 2023 drugdesign.org
#	Creation time:	2024-01-11T10:58:44Z

@<TRIPOS>MOLECULE
propanol_360.sd
   12    11     0 0 0
SMALL
USER_CHARGES


@<TRIPOS>ATOM
      1 H1            0.000000    0.000000    0.000000 H        1 SUBUNIT    0.2100
      2 C2            2.945200    1.441100   -0.000700 C.3      1 SUBUNIT   -0.0327
      3 C3            1.414900    1.350200    0.000000 C.3      1 SUBUNIT    0.0429
      4 O4            0.950000    0.000000    0.000000 O.3      1 SUBUNIT   -0.3962
      5 C5            3.467400    2.493600   -0.985300 C.3      1 SUBUNIT   -0.0632
      6 H6            3.145300    2.244200   -2.015700 H        1 SUBUNIT    0.0231
      7 H7            3.071700    3.493700   -0.719100 H        1 SUBUNIT    0.0231
      8 H8            4.574500    2.527400   -0.954900 H        1 SUBUNIT    0.0231
      9 H9            3.303200    1.678700    1.020600 H        1 SUBUNIT    0.0287
     10 H10           3.375500    0.451600   -0.252600 H        1 SUBUNIT    0.0287
     11 H11           1.011300    1.881500   -0.884600 H        1 SUBUNIT    0.0563
     12 H12           1.012200    1.881200    0.885100 H        1 SUBUNIT    0.0563
@<TRIPOS>BOND
     1    1    4 1
     2    2    5 1
     3    2    3 1
     4    2    9 1
     5    2   10 1
     6    3    4 1
     7    3   11 1
     8    3   12 1
     9    5    6 1
    10    5    7 1
    11    5    8 1
@<SCITEGIC>ATOM_PROPERTY
Formal Charge
SciTegic.value.StringValue
1 0
2 0
3 0
4 0
5 0
6 0
7 0
8 0
9 0
10 0
11 0
12 0

@<SCITEGIC>ATOM_PROPERTY
pdb_tempFactor
SciTegic.value.DoubleValue
1 0.00
2 0.00
3 0.00
4 0.00
5 0.00
6 0.00
7 0.00
8 0.00
9 0.00
10 0.00
11 0.00
12 0.00

@<SCITEGIC>ATOM_PROPERTY
pdb_occupancy
SciTegic.value.DoubleValue
1 1.00
2 1.00
3 1.00
4 1.00
5 1.00
6 1.00
7 1.00
8 1.00
9 1.00
10 1.00
11 1.00
12 1.00

#	copyright 2023 drugdesign.org
#	Creation time:	2024-01-11T10:58:44Z

@<TRIPOS>MOLECULE
propanol_360.sd
   12    11     0 0 0
SMALL
USER_CHARGES


@<TRIPOS>ATOM
      1 H1            0.000000    0.000000    0.000000 H        1 SUBUNIT    0.2100
      2 C2            2.945200    1.441100   -0.000700 C.3      1 SUBUNIT   -0.0327
      3 C3            1.414900    1.350200    0.000000 C.3      1 SUBUNIT    0.0429
      4 O4            0.950000    0.000000    0.000000 O.3      1 SUBUNIT   -0.3962
      5 C5            3.466400    2.510600   -0.967400 C.3      1 SUBUNIT   -0.0632
      6 H6            3.143200    2.279200   -2.001600 H        1 SUBUNIT    0.0231
      7 H7            3.071000    3.505900   -0.683300 H        1 SUBUNIT    0.0231
      8 H8            4.573600    2.543800   -0.937600 H        1 SUBUNIT    0.0231
      9 H9            3.304200    1.660800    1.024200 H        1 SUBUNIT    0.0287
     10 H10           3.375200    0.456200   -0.270300 H        1 SUBUNIT    0.0287
     11 H11           1.011300    1.881500   -0.884600 H        1 SUBUNIT    0.0563
     12 H12           1.012200    1.881200    0.885100 H        1 SUBUNIT    0.0563
@<TRIPOS>BOND
     1    1    4 1
     2    2    5 1
     3    2    3 1
     4    2    9 1
     5    2   10 1
     6    3    4 1
     7    3   11 1
     8    3   12 1
     9    5    6 1
    10    5    7 1
    11    5    8 1
@<SCITEGIC>ATOM_PROPERTY
Formal Charge
SciTegic.value.StringValue
1 0
2 0
3 0
4 0
5 0
6 0
7 0
8 0
9 0
10 0
11 0
12 0

@<SCITEGIC>ATOM_PROPERTY
pdb_tempFactor
SciTegic.value.DoubleValue
1 0.00
2 0.00
3 0.00
4 0.00
5 0.00
6 0.00
7 0.00
8 0.00
9 0.00
10 0.00
11 0.00
12 0.00

@<SCITEGIC>ATOM_PROPERTY
pdb_occupancy
SciTegic.value.DoubleValue
1 1.00
2 1.00
3 1.00
4 1.00
5 1.00
6 1.00
7 1.00
8 1.00
9 1.00
10 1.00
11 1.00
12 1.00

#	copyright 2023 drugdesign.org
#	Creation time:	2024-01-11T10:58:44Z

@<TRIPOS>MOLECULE
propanol_360.sd
   12    11     0 0 0
SMALL
USER_CHARGES


@<TRIPOS>ATOM
      1 H1            0.000000    0.000000    0.000000 H        1 SUBUNIT    0.2100
      2 C2            2.945200    1.441100   -0.000700 C.3      1 SUBUNIT   -0.0327
      3 C3            1.414900    1.350200    0.000000 C.3      1 SUBUNIT    0.0429
      4 O4            0.950000    0.000000    0.000000 O.3      1 SUBUNIT   -0.3962
      5 C5            3.465500    2.527300   -0.949100 C.3      1 SUBUNIT   -0.0632
      6 H6            3.141200    2.313900   -1.986900 H        1 SUBUNIT    0.0231
      7 H7            3.070300    3.517500   -0.647400 H        1 SUBUNIT    0.0231
      8 H8            4.572600    2.560000   -0.919900 H        1 SUBUNIT    0.0231
      9 H9            3.305300    1.642900    1.027500 H        1 SUBUNIT    0.0287
     10 H10           3.374900    0.461000   -0.287800 H        1 SUBUNIT    0.0287
     11 H11           1.011300    1.881500   -0.884600 H        1 SUBUNIT    0.0563
     12 H12           1.012200    1.881200    0.885100 H        1 SUBUNIT    0.0563
@<TRIPOS>BOND
     1    1    4 1
     2    2    5 1
     3    2    3 1
     4    2    9 1
     5    2   10 1
     6    3    4 1
     7    3   11 1
     8    3   12 1
     9    5    6 1
    10    5    7 1
    11    5    8 1
@<SCITEGIC>ATOM_PROPERTY
Formal Charge
SciTegic.value.StringValue
1 0
2 0
3 0
4 0
5 0
6 0
7 0
8 0
9 0
10 0
11 0
12 0

@<SCITEGIC>ATOM_PROPERTY
pdb_tempFactor
SciTegic.value.DoubleValue
1 0.00
2 0.00
3 0.00
4 0.00
5 0.00
6 0.00
7 0.00
8 0.00
9 0.00
10 0.00
11 0.00
12 0.00

@<SCITEGIC>ATOM_PROPERTY
pdb_occupancy
SciTegic.value.DoubleValue
1 1.00
2 1.00
3 1.00
4 1.00
5 1.00
6 1.00
7 1.00
8 1.00
9 1.00
10 1.00
11 1.00
12 1.00

#	copyright 2023 drugdesign.org
#	Creation time:	2024-01-11T10:58:44Z

@<TRIPOS>MOLECULE
propanol_360.sd
   12    11     0 0 0
SMALL
USER_CHARGES


@<TRIPOS>ATOM
      1 H1            0.000000    0.000000    0.000000 H        1 SUBUNIT    0.2100
      2 C2            2.945200    1.441100   -0.000700 C.3      1 SUBUNIT   -0.0327
      3 C3            1.414900    1.350200    0.000000 C.3      1 SUBUNIT    0.0429
      4 O4            0.950000    0.000000    0.000000 O.3      1 SUBUNIT   -0.3962
      5 C5            3.464500    2.543700   -0.930600 C.3      1 SUBUNIT   -0.0632
      6 H6            3.139100    2.348400   -1.971600 H        1 SUBUNIT    0.0231
      7 H7            3.069600    3.528400   -0.611200 H        1 SUBUNIT    0.0231
      8 H8            4.571700    2.575800   -0.901900 H        1 SUBUNIT    0.0231
      9 H9            3.306400    1.625000    1.030500 H        1 SUBUNIT    0.0287
     10 H10           3.374600    0.466200   -0.305300 H        1 SUBUNIT    0.0287
     11 H11           1.011300    1.881500   -0.884600 H        1 SUBUNIT    0.0563
     12 H12           1.012200    1.881200    0.885100 H        1 SUBUNIT    0.0563
@<TRIPOS>BOND
     1    1    4 1
     2    2    5 1
     3    2    3 1
     4    2    9 1
     5    2   10 1
     6    3    4 1
     7    3   11 1
     8    3   12 1
     9    5    6 1
    10    5    7 1
    11    5    8 1
@<SCITEGIC>ATOM_PROPERTY
Formal Charge
SciTegic.value.StringValue
1 0
2 0
3 0
4 0
5 0
6 0
7 0
8 0
9 0
10 0
11 0
12 0

@<SCITEGIC>ATOM_PROPERTY
pdb_tempFactor
SciTegic.value.DoubleValue
1 0.00
2 0.00
3 0.00
4 0.00
5 0.00
6 0.00
7 0.00
8 0.00
9 0.00
10 0.00
11 0.00
12 0.00

@<SCITEGIC>ATOM_PROPERTY
pdb_occupancy
SciTegic.value.DoubleValue
1 1.00
2 1.00
3 1.00
4 1.00
5 1.00
6 1.00
7 1.00
8 1.00
9 1.00
10 1.00
11 1.00
12 1.00

#	copyright 2023 drugdesign.org
#	Creation time:	2024-01-11T10:58:44Z

@<TRIPOS>MOLECULE
propanol_360.sd
   12    11     0 0 0
SMALL
USER_CHARGES


@<TRIPOS>ATOM
      1 H1            0.000000    0.000000    0.000000 H        1 SUBUNIT    0.2100
      2 C2            2.945200    1.441100   -0.000700 C.3      1 SUBUNIT   -0.0327
      3 C3            1.414900    1.350200    0.000000 C.3      1 SUBUNIT    0.0429
      4 O4            0.950000    0.000000    0.000000 O.3      1 SUBUNIT   -0.3962
      5 C5            3.463600    2.559700   -0.911800 C.3      1 SUBUNIT   -0.0632
      6 H6            3.137100    2.382600   -1.955700 H        1 SUBUNIT    0.0231
      7 H7            3.069100    3.538800   -0.574900 H        1 SUBUNIT    0.0231
      8 H8            4.570800    2.591400   -0.883700 H        1 SUBUNIT    0.0231
      9 H9            3.307400    1.607000    1.033200 H        1 SUBUNIT    0.0287
     10 H10           3.374300    0.471600   -0.322700 H        1 SUBUNIT    0.0287
     11 H11           1.011300    1.881500   -0.884600 H        1 SUBUNIT    0.0563
     12 H12           1.012200    1.881200    0.885100 H        1 SUBUNIT    0.0563
@<TRIPOS>BOND
     1    1    4 1
     2    2    5 1
     3    2    3 1
     4    2    9 1
     5    2   10 1
     6    3    4 1
     7    3   11 1
     8    3   12 1
     9    5    6 1
    10    5    7 1
    11    5    8 1
@<SCITEGIC>ATOM_PROPERTY
Formal Charge
SciTegic.value.StringValue
1 0
2 0
3 0
4 0
5 0
6 0
7 0
8 0
9 0
10 0
11 0
12 0

@<SCITEGIC>ATOM_PROPERTY
pdb_tempFactor
SciTegic.value.DoubleValue
1 0.00
2 0.00
3 0.00
4 0.00
5 0.00
6 0.00
7 0.00
8 0.00
9 0.00
10 0.00
11 0.00
12 0.00

@<SCITEGIC>ATOM_PROPERTY
pdb_occupancy
SciTegic.value.DoubleValue
1 1.00
2 1.00
3 1.00
4 1.00
5 1.00
6 1.00
7 1.00
8 1.00
9 1.00
10 1.00
11 1.00
12 1.00

#	copyright 2023 drugdesign.org
#	Creation time:	2024-01-11T10:58:44Z

@<TRIPOS>MOLECULE
propanol_360.sd
   12    11     0 0 0
SMALL
USER_CHARGES


@<TRIPOS>ATOM
      1 H1            0.000000    0.000000    0.000000 H        1 SUBUNIT    0.2100
      2 C2            2.945200    1.441100   -0.000700 C.3      1 SUBUNIT   -0.0327
      3 C3            1.414900    1.350200    0.000000 C.3      1 SUBUNIT    0.0429
      4 O4            0.950000    0.000000    0.000000 O.3      1 SUBUNIT   -0.3962
      5 C5            3.462600    2.575400   -0.892700 C.3      1 SUBUNIT   -0.0632
      6 H6            3.135100    2.416500   -1.939200 H        1 SUBUNIT    0.0231
      7 H7            3.068500    3.548400   -0.538400 H        1 SUBUNIT    0.0231
      8 H8            4.569900    2.606600   -0.865200 H        1 SUBUNIT    0.0231
      9 H9            3.308500    1.589000    1.035600 H        1 SUBUNIT    0.0287
     10 H10           3.373900    0.477400   -0.340000 H        1 SUBUNIT    0.0287
     11 H11           1.011300    1.881500   -0.884600 H        1 SUBUNIT    0.0563
     12 H12           1.012200    1.881200    0.885100 H        1 SUBUNIT    0.0563
@<TRIPOS>BOND
     1    1    4 1
     2    2    5 1
     3    2    3 1
     4    2    9 1
     5    2   10 1
     6    3    4 1
     7    3   11 1
     8    3   12 1
     9    5    6 1
    10    5    7 1
    11    5    8 1
@<SCITEGIC>ATOM_PROPERTY
Formal Charge
SciTegic.value.StringValue
1 0
2 0
3 0
4 0
5 0
6 0
7 0
8 0
9 0
10 0
11 0
12 0

@<SCITEGIC>ATOM_PROPERTY
pdb_tempFactor
SciTegic.value.DoubleValue
1 0.00
2 0.00
3 0.00
4 0.00
5 0.00
6 0.00
7 0.00
8 0.00
9 0.00
10 0.00
11 0.00
12 0.00

@<SCITEGIC>ATOM_PROPERTY
pdb_occupancy
SciTegic.value.DoubleValue
1 1.00
2 1.00
3 1.00
4 1.00
5 1.00
6 1.00
7 1.00
8 1.00
9 1.00
10 1.00
11 1.00
12 1.00

#	copyright 2023 drugdesign.org
#	Creation time:	2024-01-11T10:58:44Z

@<TRIPOS>MOLECULE
propanol_360.sd
   12    11     0 0 0
SMALL
USER_CHARGES


@<TRIPOS>ATOM
      1 H1            0.000000    0.000000    0.000000 H        1 SUBUNIT    0.2100
      2 C2            2.945200    1.441100   -0.000700 C.3      1 SUBUNIT   -0.0327
      3 C3            1.414900    1.350200    0.000000 C.3      1 SUBUNIT    0.0429
      4 O4            0.950000    0.000000    0.000000 O.3      1 SUBUNIT   -0.3962
      5 C5            3.461700    2.590800   -0.873300 C.3      1 SUBUNIT   -0.0632
      6 H6            3.133100    2.450100   -1.922100 H        1 SUBUNIT    0.0231
      7 H7            3.068000    3.557500   -0.501700 H        1 SUBUNIT    0.0231
      8 H8            4.569000    2.621500   -0.846500 H        1 SUBUNIT    0.0231
      9 H9            3.309600    1.570900    1.037600 H        1 SUBUNIT    0.0287
     10 H10           3.373600    0.483500   -0.357200 H        1 SUBUNIT    0.0287
     11 H11           1.011300    1.881500   -0.884600 H        1 SUBUNIT    0.0563
     12 H12           1.012200    1.881200    0.885100 H        1 SUBUNIT    0.0563
@<TRIPOS>BOND
     1    1    4 1
     2    2    5 1
     3    2    3 1
     4    2    9 1
     5    2   10 1
     6    3    4 1
     7    3   11 1
     8    3   12 1
     9    5    6 1
    10    5    7 1
    11    5    8 1
@<SCITEGIC>ATOM_PROPERTY
Formal Charge
SciTegic.value.StringValue
1 0
2 0
3 0
4 0
5 0
6 0
7 0
8 0
9 0
10 0
11 0
12 0

@<SCITEGIC>ATOM_PROPERTY
pdb_tempFactor
SciTegic.value.DoubleValue
1 0.00
2 0.00
3 0.00
4 0.00
5 0.00
6 0.00
7 0.00
8 0.00
9 0.00
10 0.00
11 0.00
12 0.00

@<SCITEGIC>ATOM_PROPERTY
pdb_occupancy
SciTegic.value.DoubleValue
1 1.00
2 1.00
3 1.00
4 1.00
5 1.00
6 1.00
7 1.00
8 1.00
9 1.00
10 1.00
11 1.00
12 1.00

#	copyright 2023 drugdesign.org
#	Creation time:	2024-01-11T10:58:44Z

@<TRIPOS>MOLECULE
propanol_360.sd
   12    11     0 0 0
SMALL
USER_CHARGES


@<TRIPOS>ATOM
      1 H1            0.000000    0.000000    0.000000 H        1 SUBUNIT    0.2100
      2 C2            2.945200    1.441100   -0.000700 C.3      1 SUBUNIT   -0.0327
      3 C3            1.414900    1.350200    0.000000 C.3      1 SUBUNIT    0.0429
      4 O4            0.950000    0.000000    0.000000 O.3      1 SUBUNIT   -0.3962
      5 C5            3.460800    2.605800   -0.853700 C.3      1 SUBUNIT   -0.0632
      6 H6            3.131200    2.483400   -1.904400 H        1 SUBUNIT    0.0231
      7 H7            3.067500    3.565900   -0.464900 H        1 SUBUNIT    0.0231
      8 H8            4.568100    2.636000   -0.827500 H        1 SUBUNIT    0.0231
      9 H9            3.310700    1.552800    1.039300 H        1 SUBUNIT    0.0287
     10 H10           3.373200    0.489800   -0.374200 H        1 SUBUNIT    0.0287
     11 H11           1.011300    1.881500   -0.884600 H        1 SUBUNIT    0.0563
     12 H12           1.012200    1.881200    0.885100 H        1 SUBUNIT    0.0563
@<TRIPOS>BOND
     1    1    4 1
     2    2    5 1
     3    2    3 1
     4    2    9 1
     5    2   10 1
     6    3    4 1
     7    3   11 1
     8    3   12 1
     9    5    6 1
    10    5    7 1
    11    5    8 1
@<SCITEGIC>ATOM_PROPERTY
Formal Charge
SciTegic.value.StringValue
1 0
2 0
3 0
4 0
5 0
6 0
7 0
8 0
9 0
10 0
11 0
12 0

@<SCITEGIC>ATOM_PROPERTY
pdb_tempFactor
SciTegic.value.DoubleValue
1 0.00
2 0.00
3 0.00
4 0.00
5 0.00
6 0.00
7 0.00
8 0.00
9 0.00
10 0.00
11 0.00
12 0.00

@<SCITEGIC>ATOM_PROPERTY
pdb_occupancy
SciTegic.value.DoubleValue
1 1.00
2 1.00
3 1.00
4 1.00
5 1.00
6 1.00
7 1.00
8 1.00
9 1.00
10 1.00
11 1.00
12 1.00

#	copyright 2023 drugdesign.org
#	Creation time:	2024-01-11T10:58:44Z

@<TRIPOS>MOLECULE
propanol_360.sd
   12    11     0 0 0
SMALL
USER_CHARGES


@<TRIPOS>ATOM
      1 H1            0.000000    0.000000    0.000000 H        1 SUBUNIT    0.2100
      2 C2            2.945200    1.441100   -0.000700 C.3      1 SUBUNIT   -0.0327
      3 C3            1.414900    1.350200    0.000000 C.3      1 SUBUNIT    0.0429
      4 O4            0.950000    0.000000    0.000000 O.3      1 SUBUNIT   -0.3962
      5 C5            3.460000    2.620500   -0.833800 C.3      1 SUBUNIT   -0.0632
      6 H6            3.129200    2.516400   -1.886200 H        1 SUBUNIT    0.0231
      7 H7            3.067000    3.573700   -0.428000 H        1 SUBUNIT    0.0231
      8 H8            4.567300    2.650200   -0.808200 H        1 SUBUNIT    0.0231
      9 H9            3.311700    1.534700    1.040700 H        1 SUBUNIT    0.0287
     10 H10           3.372800    0.496500   -0.391200 H        1 SUBUNIT    0.0287
     11 H11           1.011300    1.881500   -0.884600 H        1 SUBUNIT    0.0563
     12 H12           1.012200    1.881200    0.885100 H        1 SUBUNIT    0.0563
@<TRIPOS>BOND
     1    1    4 1
     2    2    5 1
     3    2    3 1
     4    2    9 1
     5    2   10 1
     6    3    4 1
     7    3   11 1
     8    3   12 1
     9    5    6 1
    10    5    7 1
    11    5    8 1
@<SCITEGIC>ATOM_PROPERTY
Formal Charge
SciTegic.value.StringValue
1 0
2 0
3 0
4 0
5 0
6 0
7 0
8 0
9 0
10 0
11 0
12 0

@<SCITEGIC>ATOM_PROPERTY
pdb_tempFactor
SciTegic.value.DoubleValue
1 0.00
2 0.00
3 0.00
4 0.00
5 0.00
6 0.00
7 0.00
8 0.00
9 0.00
10 0.00
11 0.00
12 0.00

@<SCITEGIC>ATOM_PROPERTY
pdb_occupancy
SciTegic.value.DoubleValue
1 1.00
2 1.00
3 1.00
4 1.00
5 1.00
6 1.00
7 1.00
8 1.00
9 1.00
10 1.00
11 1.00
12 1.00

#	copyright 2023 drugdesign.org
#	Creation time:	2024-01-11T10:58:44Z

@<TRIPOS>MOLECULE
propanol_360.sd
   12    11     0 0 0
SMALL
USER_CHARGES


@<TRIPOS>ATOM
      1 H1            0.000000    0.000000    0.000000 H        1 SUBUNIT    0.2100
      2 C2            2.945200    1.441100   -0.000700 C.3      1 SUBUNIT   -0.0327
      3 C3            1.414900    1.350200    0.000000 C.3      1 SUBUNIT    0.0429
      4 O4            0.950000    0.000000    0.000000 O.3      1 SUBUNIT   -0.3962
      5 C5            3.459100    2.634800   -0.813700 C.3      1 SUBUNIT   -0.0632
      6 H6            3.127300    2.549100   -1.867300 H        1 SUBUNIT    0.0231
      7 H7            3.066600    3.580800   -0.390900 H        1 SUBUNIT    0.0231
      8 H8            4.566500    2.664100   -0.788700 H        1 SUBUNIT    0.0231
      9 H9            3.312800    1.516500    1.041800 H        1 SUBUNIT    0.0287
     10 H10           3.372300    0.503400   -0.408000 H        1 SUBUNIT    0.0287
     11 H11           1.011300    1.881500   -0.884600 H        1 SUBUNIT    0.0563
     12 H12           1.012200    1.881200    0.885100 H        1 SUBUNIT    0.0563
@<TRIPOS>BOND
     1    1    4 1
     2    2    5 1
     3    2    3 1
     4    2    9 1
     5    2   10 1
     6    3    4 1
     7    3   11 1
     8    3   12 1
     9    5    6 1
    10    5    7 1
    11    5    8 1
@<SCITEGIC>ATOM_PROPERTY
Formal Charge
SciTegic.value.StringValue
1 0
2 0
3 0
4 0
5 0
6 0
7 0
8 0
9 0
10 0
11 0
12 0

@<SCITEGIC>ATOM_PROPERTY
pdb_tempFactor
SciTegic.value.DoubleValue
1 0.00
2 0.00
3 0.00
4 0.00
5 0.00
6 0.00
7 0.00
8 0.00
9 0.00
10 0.00
11 0.00
12 0.00

@<SCITEGIC>ATOM_PROPERTY
pdb_occupancy
SciTegic.value.DoubleValue
1 1.00
2 1.00
3 1.00
4 1.00
5 1.00
6 1.00
7 1.00
8 1.00
9 1.00
10 1.00
11 1.00
12 1.00

#	copyright 2023 drugdesign.org
#	Creation time:	2024-01-11T10:58:44Z

@<TRIPOS>MOLECULE
propanol_360.sd
   12    11     0 0 0
SMALL
USER_CHARGES


@<TRIPOS>ATOM
      1 H1            0.000000    0.000000    0.000000 H        1 SUBUNIT    0.2100
      2 C2            2.945200    1.441100   -0.000700 C.3      1 SUBUNIT   -0.0327
      3 C3            1.414900    1.350200    0.000000 C.3      1 SUBUNIT    0.0429
      4 O4            0.950000    0.000000    0.000000 O.3      1 SUBUNIT   -0.3962
      5 C5            3.458300    2.648800   -0.793300 C.3      1 SUBUNIT   -0.0632
      6 H6            3.125400    2.581500   -1.847900 H        1 SUBUNIT    0.0231
      7 H7            3.066300    3.587300   -0.353700 H        1 SUBUNIT    0.0231
      8 H8            4.565700    2.677700   -0.768900 H        1 SUBUNIT    0.0231
      9 H9            3.313900    1.498300    1.042600 H        1 SUBUNIT    0.0287
     10 H10           3.371900    0.510700   -0.424800 H        1 SUBUNIT    0.0287
     11 H11           1.011300    1.881500   -0.884600 H        1 SUBUNIT    0.0563
     12 H12           1.012200    1.881200    0.885100 H        1 SUBUNIT    0.0563
@<TRIPOS>BOND
     1    1    4 1
     2    2    5 1
     3    2    3 1
     4    2    9 1
     5    2   10 1
     6    3    4 1
     7    3   11 1
     8    3   12 1
     9    5    6 1
    10    5    7 1
    11    5    8 1
@<SCITEGIC>ATOM_PROPERTY
Formal Charge
SciTegic.value.StringValue
1 0
2 0
3 0
4 0
5 0
6 0
7 0
8 0
9 0
10 0
11 0
12 0

@<SCITEGIC>ATOM_PROPERTY
pdb_tempFactor
SciTegic.value.DoubleValue
1 0.00
2 0.00
3 0.00
4 0.00
5 0.00
6 0.00
7 0.00
8 0.00
9 0.00
10 0.00
11 0.00
12 0.00

@<SCITEGIC>ATOM_PROPERTY
pdb_occupancy
SciTegic.value.DoubleValue
1 1.00
2 1.00
3 1.00
4 1.00
5 1.00
6 1.00
7 1.00
8 1.00
9 1.00
10 1.00
11 1.00
12 1.00

#	copyright 2023 drugdesign.org
#	Creation time:	2024-01-11T10:58:44Z

@<TRIPOS>MOLECULE
propanol_360.sd
   12    11     0 0 0
SMALL
USER_CHARGES


@<TRIPOS>ATOM
      1 H1            0.000000    0.000000    0.000000 H        1 SUBUNIT    0.2100
      2 C2            2.945200    1.441100   -0.000700 C.3      1 SUBUNIT   -0.0327
      3 C3            1.414900    1.350200    0.000000 C.3      1 SUBUNIT    0.0429
      4 O4            0.950000    0.000000    0.000000 O.3      1 SUBUNIT   -0.3962
      5 C5            3.457500    2.662400   -0.772700 C.3      1 SUBUNIT   -0.0632
      6 H6            3.123500    2.613500   -1.828000 H        1 SUBUNIT    0.0231
      7 H7            3.065900    3.593100   -0.316300 H        1 SUBUNIT    0.0231
      8 H8            4.564900    2.690900   -0.749000 H        1 SUBUNIT    0.0231
      9 H9            3.315000    1.480100    1.043100 H        1 SUBUNIT    0.0287
     10 H10           3.371500    0.518200   -0.441300 H        1 SUBUNIT    0.0287
     11 H11           1.011300    1.881500   -0.884600 H        1 SUBUNIT    0.0563
     12 H12           1.012200    1.881200    0.885100 H        1 SUBUNIT    0.0563
@<TRIPOS>BOND
     1    1    4 1
     2    2    5 1
     3    2    3 1
     4    2    9 1
     5    2   10 1
     6    3    4 1
     7    3   11 1
     8    3   12 1
     9    5    6 1
    10    5    7 1
    11    5    8 1
@<SCITEGIC>ATOM_PROPERTY
Formal Charge
SciTegic.value.StringValue
1 0
2 0
3 0
4 0
5 0
6 0
7 0
8 0
9 0
10 0
11 0
12 0

@<SCITEGIC>ATOM_PROPERTY
pdb_tempFactor
SciTegic.value.DoubleValue
1 0.00
2 0.00
3 0.00
4 0.00
5 0.00
6 0.00
7 0.00
8 0.00
9 0.00
10 0.00
11 0.00
12 0.00

@<SCITEGIC>ATOM_PROPERTY
pdb_occupancy
SciTegic.value.DoubleValue
1 1.00
2 1.00
3 1.00
4 1.00
5 1.00
6 1.00
7 1.00
8 1.00
9 1.00
10 1.00
11 1.00
12 1.00

#	copyright 2023 drugdesign.org
#	Creation time:	2024-01-11T10:58:44Z

@<TRIPOS>MOLECULE
propanol_360.sd
   12    11     0 0 0
SMALL
USER_CHARGES


@<TRIPOS>ATOM
      1 H1            0.000000    0.000000    0.000000 H        1 SUBUNIT    0.2100
      2 C2            2.945200    1.441100   -0.000700 C.3      1 SUBUNIT   -0.0327
      3 C3            1.414900    1.350200    0.000000 C.3      1 SUBUNIT    0.0429
      4 O4            0.950000    0.000000    0.000000 O.3      1 SUBUNIT   -0.3962
      5 C5            3.456700    2.675700   -0.751800 C.3      1 SUBUNIT   -0.0632
      6 H6            3.121600    2.645100   -1.807500 H        1 SUBUNIT    0.0231
      7 H7            3.065700    3.598300   -0.278900 H        1 SUBUNIT    0.0231
      8 H8            4.564100    2.703700   -0.728800 H        1 SUBUNIT    0.0231
      9 H9            3.316100    1.462000    1.043200 H        1 SUBUNIT    0.0287
     10 H10           3.371000    0.526000   -0.457800 H        1 SUBUNIT    0.0287
     11 H11           1.011300    1.881500   -0.884600 H        1 SUBUNIT    0.0563
     12 H12           1.012200    1.881200    0.885100 H        1 SUBUNIT    0.0563
@<TRIPOS>BOND
     1    1    4 1
     2    2    5 1
     3    2    3 1
     4    2    9 1
     5    2   10 1
     6    3    4 1
     7    3   11 1
     8    3   12 1
     9    5    6 1
    10    5    7 1
    11    5    8 1
@<SCITEGIC>ATOM_PROPERTY
Formal Charge
SciTegic.value.StringValue
1 0
2 0
3 0
4 0
5 0
6 0
7 0
8 0
9 0
10 0
11 0
12 0

@<SCITEGIC>ATOM_PROPERTY
pdb_tempFactor
SciTegic.value.DoubleValue
1 0.00
2 0.00
3 0.00
4 0.00
5 0.00
6 0.00
7 0.00
8 0.00
9 0.00
10 0.00
11 0.00
12 0.00

@<SCITEGIC>ATOM_PROPERTY
pdb_occupancy
SciTegic.value.DoubleValue
1 1.00
2 1.00
3 1.00
4 1.00
5 1.00
6 1.00
7 1.00
8 1.00
9 1.00
10 1.00
11 1.00
12 1.00

#	copyright 2023 drugdesign.org
#	Creation time:	2024-01-11T10:58:44Z

@<TRIPOS>MOLECULE
propanol_360.sd
   12    11     0 0 0
SMALL
USER_CHARGES


@<TRIPOS>ATOM
      1 H1            0.000000    0.000000    0.000000 H        1 SUBUNIT    0.2100
      2 C2            2.945200    1.441100   -0.000700 C.3      1 SUBUNIT   -0.0327
      3 C3            1.414900    1.350200    0.000000 C.3      1 SUBUNIT    0.0429
      4 O4            0.950000    0.000000    0.000000 O.3      1 SUBUNIT   -0.3962
      5 C5            3.456000    2.688600   -0.730700 C.3      1 SUBUNIT   -0.0632
      6 H6            3.119700    2.676400   -1.786400 H        1 SUBUNIT    0.0231
      7 H7            3.065400    3.602800   -0.241400 H        1 SUBUNIT    0.0231
      8 H8            4.563400    2.716200   -0.708300 H        1 SUBUNIT    0.0231
      9 H9            3.317100    1.443800    1.043000 H        1 SUBUNIT    0.0287
     10 H10           3.370500    0.534100   -0.474100 H        1 SUBUNIT    0.0287
     11 H11           1.011300    1.881500   -0.884600 H        1 SUBUNIT    0.0563
     12 H12           1.012200    1.881200    0.885100 H        1 SUBUNIT    0.0563
@<TRIPOS>BOND
     1    1    4 1
     2    2    5 1
     3    2    3 1
     4    2    9 1
     5    2   10 1
     6    3    4 1
     7    3   11 1
     8    3   12 1
     9    5    6 1
    10    5    7 1
    11    5    8 1
@<SCITEGIC>ATOM_PROPERTY
Formal Charge
SciTegic.value.StringValue
1 0
2 0
3 0
4 0
5 0
6 0
7 0
8 0
9 0
10 0
11 0
12 0

@<SCITEGIC>ATOM_PROPERTY
pdb_tempFactor
SciTegic.value.DoubleValue
1 0.00
2 0.00
3 0.00
4 0.00
5 0.00
6 0.00
7 0.00
8 0.00
9 0.00
10 0.00
11 0.00
12 0.00

@<SCITEGIC>ATOM_PROPERTY
pdb_occupancy
SciTegic.value.DoubleValue
1 1.00
2 1.00
3 1.00
4 1.00
5 1.00
6 1.00
7 1.00
8 1.00
9 1.00
10 1.00
11 1.00
12 1.00

#	copyright 2023 drugdesign.org
#	Creation time:	2024-01-11T10:58:44Z

@<TRIPOS>MOLECULE
propanol_360.sd
   12    11     0 0 0
SMALL
USER_CHARGES


@<TRIPOS>ATOM
      1 H1            0.000000    0.000000    0.000000 H        1 SUBUNIT    0.2100
      2 C2            2.945200    1.441100   -0.000700 C.3      1 SUBUNIT   -0.0327
      3 C3            1.414900    1.350200    0.000000 C.3      1 SUBUNIT    0.0429
      4 O4            0.950000    0.000000    0.000000 O.3      1 SUBUNIT   -0.3962
      5 C5            3.455200    2.701100   -0.709400 C.3      1 SUBUNIT   -0.0632
      6 H6            3.117900    2.707300   -1.764800 H        1 SUBUNIT    0.0231
      7 H7            3.065200    3.606600   -0.203900 H        1 SUBUNIT    0.0231
      8 H8            4.562700    2.728300   -0.687700 H        1 SUBUNIT    0.0231
      9 H9            3.318200    1.425600    1.042500 H        1 SUBUNIT    0.0287
     10 H10           3.370000    0.542500   -0.490300 H        1 SUBUNIT    0.0287
     11 H11           1.011300    1.881500   -0.884600 H        1 SUBUNIT    0.0563
     12 H12           1.012200    1.881200    0.885100 H        1 SUBUNIT    0.0563
@<TRIPOS>BOND
     1    1    4 1
     2    2    5 1
     3    2    3 1
     4    2    9 1
     5    2   10 1
     6    3    4 1
     7    3   11 1
     8    3   12 1
     9    5    6 1
    10    5    7 1
    11    5    8 1
@<SCITEGIC>ATOM_PROPERTY
Formal Charge
SciTegic.value.StringValue
1 0
2 0
3 0
4 0
5 0
6 0
7 0
8 0
9 0
10 0
11 0
12 0

@<SCITEGIC>ATOM_PROPERTY
pdb_tempFactor
SciTegic.value.DoubleValue
1 0.00
2 0.00
3 0.00
4 0.00
5 0.00
6 0.00
7 0.00
8 0.00
9 0.00
10 0.00
11 0.00
12 0.00

@<SCITEGIC>ATOM_PROPERTY
pdb_occupancy
SciTegic.value.DoubleValue
1 1.00
2 1.00
3 1.00
4 1.00
5 1.00
6 1.00
7 1.00
8 1.00
9 1.00
10 1.00
11 1.00
12 1.00

#	copyright 2023 drugdesign.org
#	Creation time:	2024-01-11T10:58:44Z

@<TRIPOS>MOLECULE
propanol_360.sd
   12    11     0 0 0
SMALL
USER_CHARGES


@<TRIPOS>ATOM
      1 H1            0.000000    0.000000    0.000000 H        1 SUBUNIT    0.2100
      2 C2            2.945200    1.441100   -0.000700 C.3      1 SUBUNIT   -0.0327
      3 C3            1.414900    1.350200    0.000000 C.3      1 SUBUNIT    0.0429
      4 O4            0.950000    0.000000    0.000000 O.3      1 SUBUNIT   -0.3962
      5 C5            3.454500    2.713300   -0.687900 C.3      1 SUBUNIT   -0.0632
      6 H6            3.116100    2.737900   -1.742600 H        1 SUBUNIT    0.0231
      7 H7            3.065000    3.609900   -0.166200 H        1 SUBUNIT    0.0231
      8 H8            4.562000    2.740100   -0.666800 H        1 SUBUNIT    0.0231
      9 H9            3.319300    1.407400    1.041700 H        1 SUBUNIT    0.0287
     10 H10           3.369500    0.551200   -0.506300 H        1 SUBUNIT    0.0287
     11 H11           1.011300    1.881500   -0.884600 H        1 SUBUNIT    0.0563
     12 H12           1.012200    1.881200    0.885100 H        1 SUBUNIT    0.0563
@<TRIPOS>BOND
     1    1    4 1
     2    2    5 1
     3    2    3 1
     4    2    9 1
     5    2   10 1
     6    3    4 1
     7    3   11 1
     8    3   12 1
     9    5    6 1
    10    5    7 1
    11    5    8 1
@<SCITEGIC>ATOM_PROPERTY
Formal Charge
SciTegic.value.StringValue
1 0
2 0
3 0
4 0
5 0
6 0
7 0
8 0
9 0
10 0
11 0
12 0

@<SCITEGIC>ATOM_PROPERTY
pdb_tempFactor
SciTegic.value.DoubleValue
1 0.00
2 0.00
3 0.00
4 0.00
5 0.00
6 0.00
7 0.00
8 0.00
9 0.00
10 0.00
11 0.00
12 0.00

@<SCITEGIC>ATOM_PROPERTY
pdb_occupancy
SciTegic.value.DoubleValue
1 1.00
2 1.00
3 1.00
4 1.00
5 1.00
6 1.00
7 1.00
8 1.00
9 1.00
10 1.00
11 1.00
12 1.00

#	copyright 2023 drugdesign.org
#	Creation time:	2024-01-11T10:58:44Z

@<TRIPOS>MOLECULE
propanol_360.sd
   12    11     0 0 0
SMALL
USER_CHARGES


@<TRIPOS>ATOM
      1 H1            0.000000    0.000000    0.000000 H        1 SUBUNIT    0.2100
      2 C2            2.945200    1.441100   -0.000700 C.3      1 SUBUNIT   -0.0327
      3 C3            1.414900    1.350200    0.000000 C.3      1 SUBUNIT    0.0429
      4 O4            0.950000    0.000000    0.000000 O.3      1 SUBUNIT   -0.3962
      5 C5            3.453800    2.725100   -0.666100 C.3      1 SUBUNIT   -0.0632
      6 H6            3.114300    2.768000   -1.720000 H        1 SUBUNIT    0.0231
      7 H7            3.064900    3.612400   -0.128500 H        1 SUBUNIT    0.0231
      8 H8            4.561300    2.751500   -0.645800 H        1 SUBUNIT    0.0231
      9 H9            3.320400    1.389300    1.040600 H        1 SUBUNIT    0.0287
     10 H10           3.368900    0.560100   -0.522200 H        1 SUBUNIT    0.0287
     11 H11           1.011300    1.881500   -0.884600 H        1 SUBUNIT    0.0563
     12 H12           1.012200    1.881200    0.885100 H        1 SUBUNIT    0.0563
@<TRIPOS>BOND
     1    1    4 1
     2    2    5 1
     3    2    3 1
     4    2    9 1
     5    2   10 1
     6    3    4 1
     7    3   11 1
     8    3   12 1
     9    5    6 1
    10    5    7 1
    11    5    8 1
@<SCITEGIC>ATOM_PROPERTY
Formal Charge
SciTegic.value.StringValue
1 0
2 0
3 0
4 0
5 0
6 0
7 0
8 0
9 0
10 0
11 0
12 0

@<SCITEGIC>ATOM_PROPERTY
pdb_tempFactor
SciTegic.value.DoubleValue
1 0.00
2 0.00
3 0.00
4 0.00
5 0.00
6 0.00
7 0.00
8 0.00
9 0.00
10 0.00
11 0.00
12 0.00

@<SCITEGIC>ATOM_PROPERTY
pdb_occupancy
SciTegic.value.DoubleValue
1 1.00
2 1.00
3 1.00
4 1.00
5 1.00
6 1.00
7 1.00
8 1.00
9 1.00
10 1.00
11 1.00
12 1.00

#	copyright 2023 drugdesign.org
#	Creation time:	2024-01-11T10:58:44Z

@<TRIPOS>MOLECULE
propanol_360.sd
   12    11     0 0 0
SMALL
USER_CHARGES


@<TRIPOS>ATOM
      1 H1            0.000000    0.000000    0.000000 H        1 SUBUNIT    0.2100
      2 C2            2.945200    1.441100   -0.000700 C.3      1 SUBUNIT   -0.0327
      3 C3            1.414900    1.350200    0.000000 C.3      1 SUBUNIT    0.0429
      4 O4            0.950000    0.000000    0.000000 O.3      1 SUBUNIT   -0.3962
      5 C5            3.453200    2.736500   -0.644200 C.3      1 SUBUNIT   -0.0632
      6 H6            3.112600    2.797800   -1.696800 H        1 SUBUNIT    0.0231
      7 H7            3.064800    3.614300   -0.090800 H        1 SUBUNIT    0.0231
      8 H8            4.560700    2.762600   -0.624500 H        1 SUBUNIT    0.0231
      9 H9            3.321500    1.371100    1.039100 H        1 SUBUNIT    0.0287
     10 H10           3.368400    0.569300   -0.537900 H        1 SUBUNIT    0.0287
     11 H11           1.011300    1.881500   -0.884600 H        1 SUBUNIT    0.0563
     12 H12           1.012200    1.881200    0.885100 H        1 SUBUNIT    0.0563
@<TRIPOS>BOND
     1    1    4 1
     2    2    5 1
     3    2    3 1
     4    2    9 1
     5    2   10 1
     6    3    4 1
     7    3   11 1
     8    3   12 1
     9    5    6 1
    10    5    7 1
    11    5    8 1
@<SCITEGIC>ATOM_PROPERTY
Formal Charge
SciTegic.value.StringValue
1 0
2 0
3 0
4 0
5 0
6 0
7 0
8 0
9 0
10 0
11 0
12 0

@<SCITEGIC>ATOM_PROPERTY
pdb_tempFactor
SciTegic.value.DoubleValue
1 0.00
2 0.00
3 0.00
4 0.00
5 0.00
6 0.00
7 0.00
8 0.00
9 0.00
10 0.00
11 0.00
12 0.00

@<SCITEGIC>ATOM_PROPERTY
pdb_occupancy
SciTegic.value.DoubleValue
1 1.00
2 1.00
3 1.00
4 1.00
5 1.00
6 1.00
7 1.00
8 1.00
9 1.00
10 1.00
11 1.00
12 1.00

#	copyright 2023 drugdesign.org
#	Creation time:	2024-01-11T10:58:44Z

@<TRIPOS>MOLECULE
propanol_360.sd
   12    11     0 0 0
SMALL
USER_CHARGES


@<TRIPOS>ATOM
      1 H1            0.000000    0.000000    0.000000 H        1 SUBUNIT    0.2100
      2 C2            2.945200    1.441100   -0.000700 C.3      1 SUBUNIT   -0.0327
      3 C3            1.414900    1.350200    0.000000 C.3      1 SUBUNIT    0.0429
      4 O4            0.950000    0.000000    0.000000 O.3      1 SUBUNIT   -0.3962
      5 C5            3.452500    2.747500   -0.622000 C.3      1 SUBUNIT   -0.0632
      6 H6            3.110800    2.827100   -1.673000 H        1 SUBUNIT    0.0231
      7 H7            3.064700    3.615500   -0.053100 H        1 SUBUNIT    0.0231
      8 H8            4.560100    2.773200   -0.603100 H        1 SUBUNIT    0.0231
      9 H9            3.322500    1.353000    1.037400 H        1 SUBUNIT    0.0287
     10 H10           3.367800    0.578800   -0.553400 H        1 SUBUNIT    0.0287
     11 H11           1.011300    1.881500   -0.884600 H        1 SUBUNIT    0.0563
     12 H12           1.012200    1.881200    0.885100 H        1 SUBUNIT    0.0563
@<TRIPOS>BOND
     1    1    4 1
     2    2    5 1
     3    2    3 1
     4    2    9 1
     5    2   10 1
     6    3    4 1
     7    3   11 1
     8    3   12 1
     9    5    6 1
    10    5    7 1
    11    5    8 1
@<SCITEGIC>ATOM_PROPERTY
Formal Charge
SciTegic.value.StringValue
1 0
2 0
3 0
4 0
5 0
6 0
7 0
8 0
9 0
10 0
11 0
12 0

@<SCITEGIC>ATOM_PROPERTY
pdb_tempFactor
SciTegic.value.DoubleValue
1 0.00
2 0.00
3 0.00
4 0.00
5 0.00
6 0.00
7 0.00
8 0.00
9 0.00
10 0.00
11 0.00
12 0.00

@<SCITEGIC>ATOM_PROPERTY
pdb_occupancy
SciTegic.value.DoubleValue
1 1.00
2 1.00
3 1.00
4 1.00
5 1.00
6 1.00
7 1.00
8 1.00
9 1.00
10 1.00
11 1.00
12 1.00

#	copyright 2023 drugdesign.org
#	Creation time:	2024-01-11T10:58:44Z

@<TRIPOS>MOLECULE
propanol_360.sd
   12    11     0 0 0
SMALL
USER_CHARGES


@<TRIPOS>ATOM
      1 H1            0.000000    0.000000    0.000000 H        1 SUBUNIT    0.2100
      2 C2            2.945200    1.441100   -0.000700 C.3      1 SUBUNIT   -0.0327
      3 C3            1.414900    1.350200    0.000000 C.3      1 SUBUNIT    0.0429
      4 O4            0.950000    0.000000    0.000000 O.3      1 SUBUNIT   -0.3962
      5 C5            3.451900    2.758100   -0.599700 C.3      1 SUBUNIT   -0.0632
      6 H6            3.109100    2.856100   -1.648800 H        1 SUBUNIT    0.0231
      7 H7            3.064700    3.616100   -0.015300 H        1 SUBUNIT    0.0231
      8 H8            4.559500    2.783500   -0.581400 H        1 SUBUNIT    0.0231
      9 H9            3.323600    1.334900    1.035300 H        1 SUBUNIT    0.0287
     10 H10           3.367200    0.588600   -0.568800 H        1 SUBUNIT    0.0287
     11 H11           1.011300    1.881500   -0.884600 H        1 SUBUNIT    0.0563
     12 H12           1.012200    1.881200    0.885100 H        1 SUBUNIT    0.0563
@<TRIPOS>BOND
     1    1    4 1
     2    2    5 1
     3    2    3 1
     4    2    9 1
     5    2   10 1
     6    3    4 1
     7    3   11 1
     8    3   12 1
     9    5    6 1
    10    5    7 1
    11    5    8 1
@<SCITEGIC>ATOM_PROPERTY
Formal Charge
SciTegic.value.StringValue
1 0
2 0
3 0
4 0
5 0
6 0
7 0
8 0
9 0
10 0
11 0
12 0

@<SCITEGIC>ATOM_PROPERTY
pdb_tempFactor
SciTegic.value.DoubleValue
1 0.00
2 0.00
3 0.00
4 0.00
5 0.00
6 0.00
7 0.00
8 0.00
9 0.00
10 0.00
11 0.00
12 0.00

@<SCITEGIC>ATOM_PROPERTY
pdb_occupancy
SciTegic.value.DoubleValue
1 1.00
2 1.00
3 1.00
4 1.00
5 1.00
6 1.00
7 1.00
8 1.00
9 1.00
10 1.00
11 1.00
12 1.00

#	copyright 2023 drugdesign.org
#	Creation time:	2024-01-11T10:58:44Z

@<TRIPOS>MOLECULE
propanol_360.sd
   12    11     0 0 0
SMALL
USER_CHARGES


@<TRIPOS>ATOM
      1 H1            0.000000    0.000000    0.000000 H        1 SUBUNIT    0.2100
      2 C2            2.945200    1.441100   -0.000700 C.3      1 SUBUNIT   -0.0327
      3 C3            1.414900    1.350200    0.000000 C.3      1 SUBUNIT    0.0429
      4 O4            0.950000    0.000000    0.000000 O.3      1 SUBUNIT   -0.3962
      5 C5            3.451300    2.768300   -0.577200 C.3      1 SUBUNIT   -0.0632
      6 H6            3.107400    2.884600   -1.624100 H        1 SUBUNIT    0.0231
      7 H7            3.064700    3.616100    0.022500 H        1 SUBUNIT    0.0231
      8 H8            4.558900    2.793500   -0.559600 H        1 SUBUNIT    0.0231
      9 H9            3.324700    1.316900    1.032900 H        1 SUBUNIT    0.0287
     10 H10           3.366600    0.598600   -0.584000 H        1 SUBUNIT    0.0287
     11 H11           1.011300    1.881500   -0.884600 H        1 SUBUNIT    0.0563
     12 H12           1.012200    1.881200    0.885100 H        1 SUBUNIT    0.0563
@<TRIPOS>BOND
     1    1    4 1
     2    2    5 1
     3    2    3 1
     4    2    9 1
     5    2   10 1
     6    3    4 1
     7    3   11 1
     8    3   12 1
     9    5    6 1
    10    5    7 1
    11    5    8 1
@<SCITEGIC>ATOM_PROPERTY
Formal Charge
SciTegic.value.StringValue
1 0
2 0
3 0
4 0
5 0
6 0
7 0
8 0
9 0
10 0
11 0
12 0

@<SCITEGIC>ATOM_PROPERTY
pdb_tempFactor
SciTegic.value.DoubleValue
1 0.00
2 0.00
3 0.00
4 0.00
5 0.00
6 0.00
7 0.00
8 0.00
9 0.00
10 0.00
11 0.00
12 0.00

@<SCITEGIC>ATOM_PROPERTY
pdb_occupancy
SciTegic.value.DoubleValue
1 1.00
2 1.00
3 1.00
4 1.00
5 1.00
6 1.00
7 1.00
8 1.00
9 1.00
10 1.00
11 1.00
12 1.00

#	copyright 2023 drugdesign.org
#	Creation time:	2024-01-11T10:58:44Z

@<TRIPOS>MOLECULE
propanol_360.sd
   12    11     0 0 0
SMALL
USER_CHARGES


@<TRIPOS>ATOM
      1 H1            0.000000    0.000000    0.000000 H        1 SUBUNIT    0.2100
      2 C2            2.945200    1.441100   -0.000700 C.3      1 SUBUNIT   -0.0327
      3 C3            1.414900    1.350200    0.000000 C.3      1 SUBUNIT    0.0429
      4 O4            0.950000    0.000000    0.000000 O.3      1 SUBUNIT   -0.3962
      5 C5            3.450700    2.778200   -0.554500 C.3      1 SUBUNIT   -0.0632
      6 H6            3.105800    2.912600   -1.598800 H        1 SUBUNIT    0.0231
      7 H7            3.064800    3.615300    0.060200 H        1 SUBUNIT    0.0231
      8 H8            4.558300    2.803000   -0.537700 H        1 SUBUNIT    0.0231
      9 H9            3.325700    1.298900    1.030200 H        1 SUBUNIT    0.0287
     10 H10           3.366000    0.608900   -0.599000 H        1 SUBUNIT    0.0287
     11 H11           1.011300    1.881500   -0.884600 H        1 SUBUNIT    0.0563
     12 H12           1.012200    1.881200    0.885100 H        1 SUBUNIT    0.0563
@<TRIPOS>BOND
     1    1    4 1
     2    2    5 1
     3    2    3 1
     4    2    9 1
     5    2   10 1
     6    3    4 1
     7    3   11 1
     8    3   12 1
     9    5    6 1
    10    5    7 1
    11    5    8 1
@<SCITEGIC>ATOM_PROPERTY
Formal Charge
SciTegic.value.StringValue
1 0
2 0
3 0
4 0
5 0
6 0
7 0
8 0
9 0
10 0
11 0
12 0

@<SCITEGIC>ATOM_PROPERTY
pdb_tempFactor
SciTegic.value.DoubleValue
1 0.00
2 0.00
3 0.00
4 0.00
5 0.00
6 0.00
7 0.00
8 0.00
9 0.00
10 0.00
11 0.00
12 0.00

@<SCITEGIC>ATOM_PROPERTY
pdb_occupancy
SciTegic.value.DoubleValue
1 1.00
2 1.00
3 1.00
4 1.00
5 1.00
6 1.00
7 1.00
8 1.00
9 1.00
10 1.00
11 1.00
12 1.00

#	copyright 2023 drugdesign.org
#	Creation time:	2024-01-11T10:58:44Z

@<TRIPOS>MOLECULE
propanol_360.sd
   12    11     0 0 0
SMALL
USER_CHARGES


@<TRIPOS>ATOM
      1 H1            0.000000    0.000000    0.000000 H        1 SUBUNIT    0.2100
      2 C2            2.945200    1.441100   -0.000700 C.3      1 SUBUNIT   -0.0327
      3 C3            1.414900    1.350200    0.000000 C.3      1 SUBUNIT    0.0429
      4 O4            0.950000    0.000000    0.000000 O.3      1 SUBUNIT   -0.3962
      5 C5            3.450200    2.787600   -0.531700 C.3      1 SUBUNIT   -0.0632
      6 H6            3.104200    2.940200   -1.573100 H        1 SUBUNIT    0.0231
      7 H7            3.064900    3.613900    0.098000 H        1 SUBUNIT    0.0231
      8 H8            4.557800    2.812100   -0.515500 H        1 SUBUNIT    0.0231
      9 H9            3.326800    1.281000    1.027100 H        1 SUBUNIT    0.0287
     10 H10           3.365400    0.619400   -0.613900 H        1 SUBUNIT    0.0287
     11 H11           1.011300    1.881500   -0.884600 H        1 SUBUNIT    0.0563
     12 H12           1.012200    1.881200    0.885100 H        1 SUBUNIT    0.0563
@<TRIPOS>BOND
     1    1    4 1
     2    2    5 1
     3    2    3 1
     4    2    9 1
     5    2   10 1
     6    3    4 1
     7    3   11 1
     8    3   12 1
     9    5    6 1
    10    5    7 1
    11    5    8 1
@<SCITEGIC>ATOM_PROPERTY
Formal Charge
SciTegic.value.StringValue
1 0
2 0
3 0
4 0
5 0
6 0
7 0
8 0
9 0
10 0
11 0
12 0

@<SCITEGIC>ATOM_PROPERTY
pdb_tempFactor
SciTegic.value.DoubleValue
1 0.00
2 0.00
3 0.00
4 0.00
5 0.00
6 0.00
7 0.00
8 0.00
9 0.00
10 0.00
11 0.00
12 0.00

@<SCITEGIC>ATOM_PROPERTY
pdb_occupancy
SciTegic.value.DoubleValue
1 1.00
2 1.00
3 1.00
4 1.00
5 1.00
6 1.00
7 1.00
8 1.00
9 1.00
10 1.00
11 1.00
12 1.00

#	copyright 2023 drugdesign.org
#	Creation time:	2024-01-11T10:58:44Z

@<TRIPOS>MOLECULE
propanol_360.sd
   12    11     0 0 0
SMALL
USER_CHARGES


@<TRIPOS>ATOM
      1 H1            0.000000    0.000000    0.000000 H        1 SUBUNIT    0.2100
      2 C2            2.945200    1.441100   -0.000700 C.3      1 SUBUNIT   -0.0327
      3 C3            1.414900    1.350200    0.000000 C.3      1 SUBUNIT    0.0429
      4 O4            0.950000    0.000000    0.000000 O.3      1 SUBUNIT   -0.3962
      5 C5            3.449700    2.796700   -0.508600 C.3      1 SUBUNIT   -0.0632
      6 H6            3.102600    2.967400   -1.546900 H        1 SUBUNIT    0.0231
      7 H7            3.065000    3.611900    0.135700 H        1 SUBUNIT    0.0231
      8 H8            4.557300    2.820900   -0.493200 H        1 SUBUNIT    0.0231
      9 H9            3.327900    1.263100    1.023800 H        1 SUBUNIT    0.0287
     10 H10           3.364700    0.630200   -0.628500 H        1 SUBUNIT    0.0287
     11 H11           1.011300    1.881500   -0.884600 H        1 SUBUNIT    0.0563
     12 H12           1.012200    1.881200    0.885100 H        1 SUBUNIT    0.0563
@<TRIPOS>BOND
     1    1    4 1
     2    2    5 1
     3    2    3 1
     4    2    9 1
     5    2   10 1
     6    3    4 1
     7    3   11 1
     8    3   12 1
     9    5    6 1
    10    5    7 1
    11    5    8 1
@<SCITEGIC>ATOM_PROPERTY
Formal Charge
SciTegic.value.StringValue
1 0
2 0
3 0
4 0
5 0
6 0
7 0
8 0
9 0
10 0
11 0
12 0

@<SCITEGIC>ATOM_PROPERTY
pdb_tempFactor
SciTegic.value.DoubleValue
1 0.00
2 0.00
3 0.00
4 0.00
5 0.00
6 0.00
7 0.00
8 0.00
9 0.00
10 0.00
11 0.00
12 0.00

@<SCITEGIC>ATOM_PROPERTY
pdb_occupancy
SciTegic.value.DoubleValue
1 1.00
2 1.00
3 1.00
4 1.00
5 1.00
6 1.00
7 1.00
8 1.00
9 1.00
10 1.00
11 1.00
12 1.00

#	copyright 2023 drugdesign.org
#	Creation time:	2024-01-11T10:58:44Z

@<TRIPOS>MOLECULE
propanol_360.sd
   12    11     0 0 0
SMALL
USER_CHARGES


@<TRIPOS>ATOM
      1 H1            0.000000    0.000000    0.000000 H        1 SUBUNIT    0.2100
      2 C2            2.945200    1.441100   -0.000700 C.3      1 SUBUNIT   -0.0327
      3 C3            1.414900    1.350200    0.000000 C.3      1 SUBUNIT    0.0429
      4 O4            0.950000    0.000000    0.000000 O.3      1 SUBUNIT   -0.3962
      5 C5            3.449200    2.805300   -0.485500 C.3      1 SUBUNIT   -0.0632
      6 H6            3.101000    2.994100   -1.520300 H        1 SUBUNIT    0.0231
      7 H7            3.065200    3.609200    0.173400 H        1 SUBUNIT    0.0231
      8 H8            4.556800    2.829300   -0.470800 H        1 SUBUNIT    0.0231
      9 H9            3.328900    1.245300    1.020100 H        1 SUBUNIT    0.0287
     10 H10           3.364100    0.641300   -0.643000 H        1 SUBUNIT    0.0287
     11 H11           1.011300    1.881500   -0.884600 H        1 SUBUNIT    0.0563
     12 H12           1.012200    1.881200    0.885100 H        1 SUBUNIT    0.0563
@<TRIPOS>BOND
     1    1    4 1
     2    2    5 1
     3    2    3 1
     4    2    9 1
     5    2   10 1
     6    3    4 1
     7    3   11 1
     8    3   12 1
     9    5    6 1
    10    5    7 1
    11    5    8 1
@<SCITEGIC>ATOM_PROPERTY
Formal Charge
SciTegic.value.StringValue
1 0
2 0
3 0
4 0
5 0
6 0
7 0
8 0
9 0
10 0
11 0
12 0

@<SCITEGIC>ATOM_PROPERTY
pdb_tempFactor
SciTegic.value.DoubleValue
1 0.00
2 0.00
3 0.00
4 0.00
5 0.00
6 0.00
7 0.00
8 0.00
9 0.00
10 0.00
11 0.00
12 0.00

@<SCITEGIC>ATOM_PROPERTY
pdb_occupancy
SciTegic.value.DoubleValue
1 1.00
2 1.00
3 1.00
4 1.00
5 1.00
6 1.00
7 1.00
8 1.00
9 1.00
10 1.00
11 1.00
12 1.00

#	copyright 2023 drugdesign.org
#	Creation time:	2024-01-11T10:58:44Z

@<TRIPOS>MOLECULE
propanol_360.sd
   12    11     0 0 0
SMALL
USER_CHARGES


@<TRIPOS>ATOM
      1 H1            0.000000    0.000000    0.000000 H        1 SUBUNIT    0.2100
      2 C2            2.945200    1.441100   -0.000700 C.3      1 SUBUNIT   -0.0327
      3 C3            1.414900    1.350200    0.000000 C.3      1 SUBUNIT    0.0429
      4 O4            0.950000    0.000000    0.000000 O.3      1 SUBUNIT   -0.3962
      5 C5            3.448700    2.813600   -0.462200 C.3      1 SUBUNIT   -0.0632
      6 H6            3.099400    3.020300   -1.493200 H        1 SUBUNIT    0.0231
      7 H7            3.065400    3.605800    0.211000 H        1 SUBUNIT    0.0231
      8 H8            4.556300    2.837300   -0.448200 H        1 SUBUNIT    0.0231
      9 H9            3.330000    1.227500    1.016200 H        1 SUBUNIT    0.0287
     10 H10           3.363400    0.652600   -0.657300 H        1 SUBUNIT    0.0287
     11 H11           1.011300    1.881500   -0.884600 H        1 SUBUNIT    0.0563
     12 H12           1.012200    1.881200    0.885100 H        1 SUBUNIT    0.0563
@<TRIPOS>BOND
     1    1    4 1
     2    2    5 1
     3    2    3 1
     4    2    9 1
     5    2   10 1
     6    3    4 1
     7    3   11 1
     8    3   12 1
     9    5    6 1
    10    5    7 1
    11    5    8 1
@<SCITEGIC>ATOM_PROPERTY
Formal Charge
SciTegic.value.StringValue
1 0
2 0
3 0
4 0
5 0
6 0
7 0
8 0
9 0
10 0
11 0
12 0

@<SCITEGIC>ATOM_PROPERTY
pdb_tempFactor
SciTegic.value.DoubleValue
1 0.00
2 0.00
3 0.00
4 0.00
5 0.00
6 0.00
7 0.00
8 0.00
9 0.00
10 0.00
11 0.00
12 0.00

@<SCITEGIC>ATOM_PROPERTY
pdb_occupancy
SciTegic.value.DoubleValue
1 1.00
2 1.00
3 1.00
4 1.00
5 1.00
6 1.00
7 1.00
8 1.00
9 1.00
10 1.00
11 1.00
12 1.00

#	copyright 2023 drugdesign.org
#	Creation time:	2024-01-11T10:58:44Z

@<TRIPOS>MOLECULE
propanol_360.sd
   12    11     0 0 0
SMALL
USER_CHARGES


@<TRIPOS>ATOM
      1 H1            0.000000    0.000000    0.000000 H        1 SUBUNIT    0.2100
      2 C2            2.945200    1.441100   -0.000700 C.3      1 SUBUNIT   -0.0327
      3 C3            1.414900    1.350200    0.000000 C.3      1 SUBUNIT    0.0429
      4 O4            0.950000    0.000000    0.000000 O.3      1 SUBUNIT   -0.3962
      5 C5            3.448200    2.821400   -0.438700 C.3      1 SUBUNIT   -0.0632
      6 H6            3.097900    3.046100   -1.465600 H        1 SUBUNIT    0.0231
      7 H7            3.065700    3.601800    0.248500 H        1 SUBUNIT    0.0231
      8 H8            4.555900    2.844800   -0.425500 H        1 SUBUNIT    0.0231
      9 H9            3.331000    1.209900    1.011900 H        1 SUBUNIT    0.0287
     10 H10           3.362700    0.664200   -0.671300 H        1 SUBUNIT    0.0287
     11 H11           1.011300    1.881500   -0.884600 H        1 SUBUNIT    0.0563
     12 H12           1.012200    1.881200    0.885100 H        1 SUBUNIT    0.0563
@<TRIPOS>BOND
     1    1    4 1
     2    2    5 1
     3    2    3 1
     4    2    9 1
     5    2   10 1
     6    3    4 1
     7    3   11 1
     8    3   12 1
     9    5    6 1
    10    5    7 1
    11    5    8 1
@<SCITEGIC>ATOM_PROPERTY
Formal Charge
SciTegic.value.StringValue
1 0
2 0
3 0
4 0
5 0
6 0
7 0
8 0
9 0
10 0
11 0
12 0

@<SCITEGIC>ATOM_PROPERTY
pdb_tempFactor
SciTegic.value.DoubleValue
1 0.00
2 0.00
3 0.00
4 0.00
5 0.00
6 0.00
7 0.00
8 0.00
9 0.00
10 0.00
11 0.00
12 0.00

@<SCITEGIC>ATOM_PROPERTY
pdb_occupancy
SciTegic.value.DoubleValue
1 1.00
2 1.00
3 1.00
4 1.00
5 1.00
6 1.00
7 1.00
8 1.00
9 1.00
10 1.00
11 1.00
12 1.00

#	copyright 2023 drugdesign.org
#	Creation time:	2024-01-11T10:58:44Z

@<TRIPOS>MOLECULE
propanol_360.sd
   12    11     0 0 0
SMALL
USER_CHARGES


@<TRIPOS>ATOM
      1 H1            0.000000    0.000000    0.000000 H        1 SUBUNIT    0.2100
      2 C2            2.945200    1.441100   -0.000700 C.3      1 SUBUNIT   -0.0327
      3 C3            1.414900    1.350200    0.000000 C.3      1 SUBUNIT    0.0429
      4 O4            0.950000    0.000000    0.000000 O.3      1 SUBUNIT   -0.3962
      5 C5            3.447800    2.828800   -0.415100 C.3      1 SUBUNIT   -0.0632
      6 H6            3.096400    3.071400   -1.437500 H        1 SUBUNIT    0.0231
      7 H7            3.066000    3.597100    0.286000 H        1 SUBUNIT    0.0231
      8 H8            4.555500    2.852000   -0.402600 H        1 SUBUNIT    0.0231
      9 H9            3.332100    1.192200    1.007300 H        1 SUBUNIT    0.0287
     10 H10           3.362000    0.676000   -0.685200 H        1 SUBUNIT    0.0287
     11 H11           1.011300    1.881500   -0.884600 H        1 SUBUNIT    0.0563
     12 H12           1.012200    1.881200    0.885100 H        1 SUBUNIT    0.0563
@<TRIPOS>BOND
     1    1    4 1
     2    2    5 1
     3    2    3 1
     4    2    9 1
     5    2   10 1
     6    3    4 1
     7    3   11 1
     8    3   12 1
     9    5    6 1
    10    5    7 1
    11    5    8 1
@<SCITEGIC>ATOM_PROPERTY
Formal Charge
SciTegic.value.StringValue
1 0
2 0
3 0
4 0
5 0
6 0
7 0
8 0
9 0
10 0
11 0
12 0

@<SCITEGIC>ATOM_PROPERTY
pdb_tempFactor
SciTegic.value.DoubleValue
1 0.00
2 0.00
3 0.00
4 0.00
5 0.00
6 0.00
7 0.00
8 0.00
9 0.00
10 0.00
11 0.00
12 0.00

@<SCITEGIC>ATOM_PROPERTY
pdb_occupancy
SciTegic.value.DoubleValue
1 1.00
2 1.00
3 1.00
4 1.00
5 1.00
6 1.00
7 1.00
8 1.00
9 1.00
10 1.00
11 1.00
12 1.00

#	copyright 2023 drugdesign.org
#	Creation time:	2024-01-11T10:58:44Z

@<TRIPOS>MOLECULE
propanol_360.sd
   12    11     0 0 0
SMALL
USER_CHARGES


@<TRIPOS>ATOM
      1 H1            0.000000    0.000000    0.000000 H        1 SUBUNIT    0.2100
      2 C2            2.945200    1.441100   -0.000700 C.3      1 SUBUNIT   -0.0327
      3 C3            1.414900    1.350200    0.000000 C.3      1 SUBUNIT    0.0429
      4 O4            0.950000    0.000000    0.000000 O.3      1 SUBUNIT   -0.3962
      5 C5            3.447400    2.835800   -0.391400 C.3      1 SUBUNIT   -0.0632
      6 H6            3.095000    3.096200   -1.409100 H        1 SUBUNIT    0.0231
      7 H7            3.066300    3.591800    0.323400 H        1 SUBUNIT    0.0231
      8 H8            4.555100    2.858800   -0.379600 H        1 SUBUNIT    0.0231
      9 H9            3.333100    1.174700    1.002400 H        1 SUBUNIT    0.0287
     10 H10           3.361200    0.688000   -0.698800 H        1 SUBUNIT    0.0287
     11 H11           1.011300    1.881500   -0.884600 H        1 SUBUNIT    0.0563
     12 H12           1.012200    1.881200    0.885100 H        1 SUBUNIT    0.0563
@<TRIPOS>BOND
     1    1    4 1
     2    2    5 1
     3    2    3 1
     4    2    9 1
     5    2   10 1
     6    3    4 1
     7    3   11 1
     8    3   12 1
     9    5    6 1
    10    5    7 1
    11    5    8 1
@<SCITEGIC>ATOM_PROPERTY
Formal Charge
SciTegic.value.StringValue
1 0
2 0
3 0
4 0
5 0
6 0
7 0
8 0
9 0
10 0
11 0
12 0

@<SCITEGIC>ATOM_PROPERTY
pdb_tempFactor
SciTegic.value.DoubleValue
1 0.00
2 0.00
3 0.00
4 0.00
5 0.00
6 0.00
7 0.00
8 0.00
9 0.00
10 0.00
11 0.00
12 0.00

@<SCITEGIC>ATOM_PROPERTY
pdb_occupancy
SciTegic.value.DoubleValue
1 1.00
2 1.00
3 1.00
4 1.00
5 1.00
6 1.00
7 1.00
8 1.00
9 1.00
10 1.00
11 1.00
12 1.00

#	copyright 2023 drugdesign.org
#	Creation time:	2024-01-11T10:58:44Z

@<TRIPOS>MOLECULE
propanol_360.sd
   12    11     0 0 0
SMALL
USER_CHARGES


@<TRIPOS>ATOM
      1 H1            0.000000    0.000000    0.000000 H        1 SUBUNIT    0.2100
      2 C2            2.945200    1.441100   -0.000700 C.3      1 SUBUNIT   -0.0327
      3 C3            1.414900    1.350200    0.000000 C.3      1 SUBUNIT    0.0429
      4 O4            0.950000    0.000000    0.000000 O.3      1 SUBUNIT   -0.3962
      5 C5            3.447000    2.842400   -0.367500 C.3      1 SUBUNIT   -0.0632
      6 H6            3.093500    3.120500   -1.380200 H        1 SUBUNIT    0.0231
      7 H7            3.066700    3.585800    0.360700 H        1 SUBUNIT    0.0231
      8 H8            4.554700    2.865200   -0.356500 H        1 SUBUNIT    0.0231
      9 H9            3.334100    1.157300    0.997200 H        1 SUBUNIT    0.0287
     10 H10           3.360500    0.700300   -0.712300 H        1 SUBUNIT    0.0287
     11 H11           1.011300    1.881500   -0.884600 H        1 SUBUNIT    0.0563
     12 H12           1.012200    1.881200    0.885100 H        1 SUBUNIT    0.0563
@<TRIPOS>BOND
     1    1    4 1
     2    2    5 1
     3    2    3 1
     4    2    9 1
     5    2   10 1
     6    3    4 1
     7    3   11 1
     8    3   12 1
     9    5    6 1
    10    5    7 1
    11    5    8 1
@<SCITEGIC>ATOM_PROPERTY
Formal Charge
SciTegic.value.StringValue
1 0
2 0
3 0
4 0
5 0
6 0
7 0
8 0
9 0
10 0
11 0
12 0

@<SCITEGIC>ATOM_PROPERTY
pdb_tempFactor
SciTegic.value.DoubleValue
1 0.00
2 0.00
3 0.00
4 0.00
5 0.00
6 0.00
7 0.00
8 0.00
9 0.00
10 0.00
11 0.00
12 0.00

@<SCITEGIC>ATOM_PROPERTY
pdb_occupancy
SciTegic.value.DoubleValue
1 1.00
2 1.00
3 1.00
4 1.00
5 1.00
6 1.00
7 1.00
8 1.00
9 1.00
10 1.00
11 1.00
12 1.00

#	copyright 2023 drugdesign.org
#	Creation time:	2024-01-11T10:58:44Z

@<TRIPOS>MOLECULE
propanol_360.sd
   12    11     0 0 0
SMALL
USER_CHARGES


@<TRIPOS>ATOM
      1 H1            0.000000    0.000000    0.000000 H        1 SUBUNIT    0.2100
      2 C2            2.945200    1.441100   -0.000700 C.3      1 SUBUNIT   -0.0327
      3 C3            1.414900    1.350200    0.000000 C.3      1 SUBUNIT    0.0429
      4 O4            0.950000    0.000000    0.000000 O.3      1 SUBUNIT   -0.3962
      5 C5            3.446600    2.848600   -0.343600 C.3      1 SUBUNIT   -0.0632
      6 H6            3.092100    3.144200   -1.350900 H        1 SUBUNIT    0.0231
      7 H7            3.067100    3.579200    0.397900 H        1 SUBUNIT    0.0231
      8 H8            4.554400    2.871200   -0.333300 H        1 SUBUNIT    0.0231
      9 H9            3.335200    1.139900    0.991700 H        1 SUBUNIT    0.0287
     10 H10           3.359800    0.712800   -0.725500 H        1 SUBUNIT    0.0287
     11 H11           1.011300    1.881500   -0.884600 H        1 SUBUNIT    0.0563
     12 H12           1.012200    1.881200    0.885100 H        1 SUBUNIT    0.0563
@<TRIPOS>BOND
     1    1    4 1
     2    2    5 1
     3    2    3 1
     4    2    9 1
     5    2   10 1
     6    3    4 1
     7    3   11 1
     8    3   12 1
     9    5    6 1
    10    5    7 1
    11    5    8 1
@<SCITEGIC>ATOM_PROPERTY
Formal Charge
SciTegic.value.StringValue
1 0
2 0
3 0
4 0
5 0
6 0
7 0
8 0
9 0
10 0
11 0
12 0

@<SCITEGIC>ATOM_PROPERTY
pdb_tempFactor
SciTegic.value.DoubleValue
1 0.00
2 0.00
3 0.00
4 0.00
5 0.00
6 0.00
7 0.00
8 0.00
9 0.00
10 0.00
11 0.00
12 0.00

@<SCITEGIC>ATOM_PROPERTY
pdb_occupancy
SciTegic.value.DoubleValue
1 1.00
2 1.00
3 1.00
4 1.00
5 1.00
6 1.00
7 1.00
8 1.00
9 1.00
10 1.00
11 1.00
12 1.00

#	copyright 2023 drugdesign.org
#	Creation time:	2024-01-11T10:58:44Z

@<TRIPOS>MOLECULE
propanol_360.sd
   12    11     0 0 0
SMALL
USER_CHARGES


@<TRIPOS>ATOM
      1 H1            0.000000    0.000000    0.000000 H        1 SUBUNIT    0.2100
      2 C2            2.945200    1.441100   -0.000700 C.3      1 SUBUNIT   -0.0327
      3 C3            1.414900    1.350200    0.000000 C.3      1 SUBUNIT    0.0429
      4 O4            0.950000    0.000000    0.000000 O.3      1 SUBUNIT   -0.3962
      5 C5            3.446300    2.854400   -0.319500 C.3      1 SUBUNIT   -0.0632
      6 H6            3.090800    3.167500   -1.321100 H        1 SUBUNIT    0.0231
      7 H7            3.067500    3.571900    0.435000 H        1 SUBUNIT    0.0231
      8 H8            4.554100    2.876800   -0.310000 H        1 SUBUNIT    0.0231
      9 H9            3.336200    1.122700    0.985900 H        1 SUBUNIT    0.0287
     10 H10           3.359000    0.725500   -0.738500 H        1 SUBUNIT    0.0287
     11 H11           1.011300    1.881500   -0.884600 H        1 SUBUNIT    0.0563
     12 H12           1.012200    1.881200    0.885100 H        1 SUBUNIT    0.0563
@<TRIPOS>BOND
     1    1    4 1
     2    2    5 1
     3    2    3 1
     4    2    9 1
     5    2   10 1
     6    3    4 1
     7    3   11 1
     8    3   12 1
     9    5    6 1
    10    5    7 1
    11    5    8 1
@<SCITEGIC>ATOM_PROPERTY
Formal Charge
SciTegic.value.StringValue
1 0
2 0
3 0
4 0
5 0
6 0
7 0
8 0
9 0
10 0
11 0
12 0

@<SCITEGIC>ATOM_PROPERTY
pdb_tempFactor
SciTegic.value.DoubleValue
1 0.00
2 0.00
3 0.00
4 0.00
5 0.00
6 0.00
7 0.00
8 0.00
9 0.00
10 0.00
11 0.00
12 0.00

@<SCITEGIC>ATOM_PROPERTY
pdb_occupancy
SciTegic.value.DoubleValue
1 1.00
2 1.00
3 1.00
4 1.00
5 1.00
6 1.00
7 1.00
8 1.00
9 1.00
10 1.00
11 1.00
12 1.00

#	copyright 2023 drugdesign.org
#	Creation time:	2024-01-11T10:58:44Z

@<TRIPOS>MOLECULE
propanol_360.sd
   12    11     0 0 0
SMALL
USER_CHARGES


@<TRIPOS>ATOM
      1 H1            0.000000    0.000000    0.000000 H        1 SUBUNIT    0.2100
      2 C2            2.945200    1.441100   -0.000700 C.3      1 SUBUNIT   -0.0327
      3 C3            1.414900    1.350200    0.000000 C.3      1 SUBUNIT    0.0429
      4 O4            0.950000    0.000000    0.000000 O.3      1 SUBUNIT   -0.3962
      5 C5            3.446000    2.859700   -0.295400 C.3      1 SUBUNIT   -0.0632
      6 H6            3.089400    3.190200   -1.291000 H        1 SUBUNIT    0.0231
      7 H7            3.068000    3.564000    0.471900 H        1 SUBUNIT    0.0231
      8 H8            4.553800    2.881900   -0.286700 H        1 SUBUNIT    0.0231
      9 H9            3.337200    1.105600    0.979800 H        1 SUBUNIT    0.0287
     10 H10           3.358200    0.738500   -0.751300 H        1 SUBUNIT    0.0287
     11 H11           1.011300    1.881500   -0.884600 H        1 SUBUNIT    0.0563
     12 H12           1.012200    1.881200    0.885100 H        1 SUBUNIT    0.0563
@<TRIPOS>BOND
     1    1    4 1
     2    2    5 1
     3    2    3 1
     4    2    9 1
     5    2   10 1
     6    3    4 1
     7    3   11 1
     8    3   12 1
     9    5    6 1
    10    5    7 1
    11    5    8 1
@<SCITEGIC>ATOM_PROPERTY
Formal Charge
SciTegic.value.StringValue
1 0
2 0
3 0
4 0
5 0
6 0
7 0
8 0
9 0
10 0
11 0
12 0

@<SCITEGIC>ATOM_PROPERTY
pdb_tempFactor
SciTegic.value.DoubleValue
1 0.00
2 0.00
3 0.00
4 0.00
5 0.00
6 0.00
7 0.00
8 0.00
9 0.00
10 0.00
11 0.00
12 0.00

@<SCITEGIC>ATOM_PROPERTY
pdb_occupancy
SciTegic.value.DoubleValue
1 1.00
2 1.00
3 1.00
4 1.00
5 1.00
6 1.00
7 1.00
8 1.00
9 1.00
10 1.00
11 1.00
12 1.00

#	copyright 2023 drugdesign.org
#	Creation time:	2024-01-11T10:58:44Z

@<TRIPOS>MOLECULE
propanol_360.sd
   12    11     0 0 0
SMALL
USER_CHARGES


@<TRIPOS>ATOM
      1 H1            0.000000    0.000000    0.000000 H        1 SUBUNIT    0.2100
      2 C2            2.945200    1.441100   -0.000700 C.3      1 SUBUNIT   -0.0327
      3 C3            1.414900    1.350200    0.000000 C.3      1 SUBUNIT    0.0429
      4 O4            0.950000    0.000000    0.000000 O.3      1 SUBUNIT   -0.3962
      5 C5            3.445700    2.864600   -0.271200 C.3      1 SUBUNIT   -0.0632
      6 H6            3.088100    3.212500   -1.260500 H        1 SUBUNIT    0.0231
      7 H7            3.068500    3.555500    0.508700 H        1 SUBUNIT    0.0231
      8 H8            4.553500    2.886700   -0.263200 H        1 SUBUNIT    0.0231
      9 H9            3.338200    1.088500    0.973400 H        1 SUBUNIT    0.0287
     10 H10           3.357400    0.751700   -0.763900 H        1 SUBUNIT    0.0287
     11 H11           1.011300    1.881500   -0.884600 H        1 SUBUNIT    0.0563
     12 H12           1.012200    1.881200    0.885100 H        1 SUBUNIT    0.0563
@<TRIPOS>BOND
     1    1    4 1
     2    2    5 1
     3    2    3 1
     4    2    9 1
     5    2   10 1
     6    3    4 1
     7    3   11 1
     8    3   12 1
     9    5    6 1
    10    5    7 1
    11    5    8 1
@<SCITEGIC>ATOM_PROPERTY
Formal Charge
SciTegic.value.StringValue
1 0
2 0
3 0
4 0
5 0
6 0
7 0
8 0
9 0
10 0
11 0
12 0

@<SCITEGIC>ATOM_PROPERTY
pdb_tempFactor
SciTegic.value.DoubleValue
1 0.00
2 0.00
3 0.00
4 0.00
5 0.00
6 0.00
7 0.00
8 0.00
9 0.00
10 0.00
11 0.00
12 0.00

@<SCITEGIC>ATOM_PROPERTY
pdb_occupancy
SciTegic.value.DoubleValue
1 1.00
2 1.00
3 1.00
4 1.00
5 1.00
6 1.00
7 1.00
8 1.00
9 1.00
10 1.00
11 1.00
12 1.00

#	copyright 2023 drugdesign.org
#	Creation time:	2024-01-11T10:58:44Z

@<TRIPOS>MOLECULE
propanol_360.sd
   12    11     0 0 0
SMALL
USER_CHARGES


@<TRIPOS>ATOM
      1 H1            0.000000    0.000000    0.000000 H        1 SUBUNIT    0.2100
      2 C2            2.945200    1.441100   -0.000700 C.3      1 SUBUNIT   -0.0327
      3 C3            1.414900    1.350200    0.000000 C.3      1 SUBUNIT    0.0429
      4 O4            0.950000    0.000000    0.000000 O.3      1 SUBUNIT   -0.3962
      5 C5            3.445500    2.869100   -0.246800 C.3      1 SUBUNIT   -0.0632
      6 H6            3.086900    3.234100   -1.229600 H        1 SUBUNIT    0.0231
      7 H7            3.069100    3.546300    0.545300 H        1 SUBUNIT    0.0231
      8 H8            4.553200    2.891100   -0.239600 H        1 SUBUNIT    0.0231
      9 H9            3.339200    1.071600    0.966700 H        1 SUBUNIT    0.0287
     10 H10           3.356600    0.765100   -0.776200 H        1 SUBUNIT    0.0287
     11 H11           1.011300    1.881500   -0.884600 H        1 SUBUNIT    0.0563
     12 H12           1.012200    1.881200    0.885100 H        1 SUBUNIT    0.0563
@<TRIPOS>BOND
     1    1    4 1
     2    2    5 1
     3    2    3 1
     4    2    9 1
     5    2   10 1
     6    3    4 1
     7    3   11 1
     8    3   12 1
     9    5    6 1
    10    5    7 1
    11    5    8 1
@<SCITEGIC>ATOM_PROPERTY
Formal Charge
SciTegic.value.StringValue
1 0
2 0
3 0
4 0
5 0
6 0
7 0
8 0
9 0
10 0
11 0
12 0

@<SCITEGIC>ATOM_PROPERTY
pdb_tempFactor
SciTegic.value.DoubleValue
1 0.00
2 0.00
3 0.00
4 0.00
5 0.00
6 0.00
7 0.00
8 0.00
9 0.00
10 0.00
11 0.00
12 0.00

@<SCITEGIC>ATOM_PROPERTY
pdb_occupancy
SciTegic.value.DoubleValue
1 1.00
2 1.00
3 1.00
4 1.00
5 1.00
6 1.00
7 1.00
8 1.00
9 1.00
10 1.00
11 1.00
12 1.00

#	copyright 2023 drugdesign.org
#	Creation time:	2024-01-11T10:58:44Z

@<TRIPOS>MOLECULE
propanol_360.sd
   12    11     0 0 0
SMALL
USER_CHARGES


@<TRIPOS>ATOM
      1 H1            0.000000    0.000000    0.000000 H        1 SUBUNIT    0.2100
      2 C2            2.945200    1.441100   -0.000700 C.3      1 SUBUNIT   -0.0327
      3 C3            1.414900    1.350200    0.000000 C.3      1 SUBUNIT    0.0429
      4 O4            0.950000    0.000000    0.000000 O.3      1 SUBUNIT   -0.3962
      5 C5            3.445200    2.873200   -0.222400 C.3      1 SUBUNIT   -0.0632
      6 H6            3.085600    3.255300   -1.198300 H        1 SUBUNIT    0.0231
      7 H7            3.069700    3.536400    0.581800 H        1 SUBUNIT    0.0231
      8 H8            4.553000    2.895000   -0.216000 H        1 SUBUNIT    0.0231
      9 H9            3.340200    1.054800    0.959700 H        1 SUBUNIT    0.0287
     10 H10           3.355800    0.778700   -0.788300 H        1 SUBUNIT    0.0287
     11 H11           1.011300    1.881500   -0.884600 H        1 SUBUNIT    0.0563
     12 H12           1.012200    1.881200    0.885100 H        1 SUBUNIT    0.0563
@<TRIPOS>BOND
     1    1    4 1
     2    2    5 1
     3    2    3 1
     4    2    9 1
     5    2   10 1
     6    3    4 1
     7    3   11 1
     8    3   12 1
     9    5    6 1
    10    5    7 1
    11    5    8 1
@<SCITEGIC>ATOM_PROPERTY
Formal Charge
SciTegic.value.StringValue
1 0
2 0
3 0
4 0
5 0
6 0
7 0
8 0
9 0
10 0
11 0
12 0

@<SCITEGIC>ATOM_PROPERTY
pdb_tempFactor
SciTegic.value.DoubleValue
1 0.00
2 0.00
3 0.00
4 0.00
5 0.00
6 0.00
7 0.00
8 0.00
9 0.00
10 0.00
11 0.00
12 0.00

@<SCITEGIC>ATOM_PROPERTY
pdb_occupancy
SciTegic.value.DoubleValue
1 1.00
2 1.00
3 1.00
4 1.00
5 1.00
6 1.00
7 1.00
8 1.00
9 1.00
10 1.00
11 1.00
12 1.00

#	copyright 2023 drugdesign.org
#	Creation time:	2024-01-11T10:58:44Z

@<TRIPOS>MOLECULE
propanol_360.sd
   12    11     0 0 0
SMALL
USER_CHARGES


@<TRIPOS>ATOM
      1 H1            0.000000    0.000000    0.000000 H        1 SUBUNIT    0.2100
      2 C2            2.945200    1.441100   -0.000700 C.3      1 SUBUNIT   -0.0327
      3 C3            1.414900    1.350200    0.000000 C.3      1 SUBUNIT    0.0429
      4 O4            0.950000    0.000000    0.000000 O.3      1 SUBUNIT   -0.3962
      5 C5            3.445000    2.876800   -0.198000 C.3      1 SUBUNIT   -0.0632
      6 H6            3.084400    3.275900   -1.166700 H        1 SUBUNIT    0.0231
      7 H7            3.070400    3.526000    0.618100 H        1 SUBUNIT    0.0231
      8 H8            4.552800    2.898500   -0.192300 H        1 SUBUNIT    0.0231
      9 H9            3.341200    1.038100    0.952400 H        1 SUBUNIT    0.0287
     10 H10           3.355000    0.792500   -0.800100 H        1 SUBUNIT    0.0287
     11 H11           1.011300    1.881500   -0.884600 H        1 SUBUNIT    0.0563
     12 H12           1.012200    1.881200    0.885100 H        1 SUBUNIT    0.0563
@<TRIPOS>BOND
     1    1    4 1
     2    2    5 1
     3    2    3 1
     4    2    9 1
     5    2   10 1
     6    3    4 1
     7    3   11 1
     8    3   12 1
     9    5    6 1
    10    5    7 1
    11    5    8 1
@<SCITEGIC>ATOM_PROPERTY
Formal Charge
SciTegic.value.StringValue
1 0
2 0
3 0
4 0
5 0
6 0
7 0
8 0
9 0
10 0
11 0
12 0

@<SCITEGIC>ATOM_PROPERTY
pdb_tempFactor
SciTegic.value.DoubleValue
1 0.00
2 0.00
3 0.00
4 0.00
5 0.00
6 0.00
7 0.00
8 0.00
9 0.00
10 0.00
11 0.00
12 0.00

@<SCITEGIC>ATOM_PROPERTY
pdb_occupancy
SciTegic.value.DoubleValue
1 1.00
2 1.00
3 1.00
4 1.00
5 1.00
6 1.00
7 1.00
8 1.00
9 1.00
10 1.00
11 1.00
12 1.00

#	copyright 2023 drugdesign.org
#	Creation time:	2024-01-11T10:58:44Z

@<TRIPOS>MOLECULE
propanol_360.sd
   12    11     0 0 0
SMALL
USER_CHARGES


@<TRIPOS>ATOM
      1 H1            0.000000    0.000000    0.000000 H        1 SUBUNIT    0.2100
      2 C2            2.945200    1.441100   -0.000700 C.3      1 SUBUNIT   -0.0327
      3 C3            1.414900    1.350200    0.000000 C.3      1 SUBUNIT    0.0429
      4 O4            0.950000    0.000000    0.000000 O.3      1 SUBUNIT   -0.3962
      5 C5            3.444900    2.880100   -0.173400 C.3      1 SUBUNIT   -0.0632
      6 H6            3.083200    3.295900   -1.134700 H        1 SUBUNIT    0.0231
      7 H7            3.071000    3.514900    0.654200 H        1 SUBUNIT    0.0231
      8 H8            4.552600    2.901700   -0.168500 H        1 SUBUNIT    0.0231
      9 H9            3.342200    1.021600    0.944900 H        1 SUBUNIT    0.0287
     10 H10           3.354200    0.806600   -0.811700 H        1 SUBUNIT    0.0287
     11 H11           1.011300    1.881500   -0.884600 H        1 SUBUNIT    0.0563
     12 H12           1.012200    1.881200    0.885100 H        1 SUBUNIT    0.0563
@<TRIPOS>BOND
     1    1    4 1
     2    2    5 1
     3    2    3 1
     4    2    9 1
     5    2   10 1
     6    3    4 1
     7    3   11 1
     8    3   12 1
     9    5    6 1
    10    5    7 1
    11    5    8 1
@<SCITEGIC>ATOM_PROPERTY
Formal Charge
SciTegic.value.StringValue
1 0
2 0
3 0
4 0
5 0
6 0
7 0
8 0
9 0
10 0
11 0
12 0

@<SCITEGIC>ATOM_PROPERTY
pdb_tempFactor
SciTegic.value.DoubleValue
1 0.00
2 0.00
3 0.00
4 0.00
5 0.00
6 0.00
7 0.00
8 0.00
9 0.00
10 0.00
11 0.00
12 0.00

@<SCITEGIC>ATOM_PROPERTY
pdb_occupancy
SciTegic.value.DoubleValue
1 1.00
2 1.00
3 1.00
4 1.00
5 1.00
6 1.00
7 1.00
8 1.00
9 1.00
10 1.00
11 1.00
12 1.00

#	copyright 2023 drugdesign.org
#	Creation time:	2024-01-11T10:58:44Z

@<TRIPOS>MOLECULE
propanol_360.sd
   12    11     0 0 0
SMALL
USER_CHARGES


@<TRIPOS>ATOM
      1 H1            0.000000    0.000000    0.000000 H        1 SUBUNIT    0.2100
      2 C2            2.945200    1.441100   -0.000700 C.3      1 SUBUNIT   -0.0327
      3 C3            1.414900    1.350200    0.000000 C.3      1 SUBUNIT    0.0429
      4 O4            0.950000    0.000000    0.000000 O.3      1 SUBUNIT   -0.3962
      5 C5            3.444700    2.882800   -0.148900 C.3      1 SUBUNIT   -0.0632
      6 H6            3.082100    3.315400   -1.102300 H        1 SUBUNIT    0.0231
      7 H7            3.071700    3.503200    0.690100 H        1 SUBUNIT    0.0231
      8 H8            4.552500    2.904400   -0.144700 H        1 SUBUNIT    0.0231
      9 H9            3.343100    1.005200    0.937000 H        1 SUBUNIT    0.0287
     10 H10           3.353300    0.820800   -0.823100 H        1 SUBUNIT    0.0287
     11 H11           1.011300    1.881500   -0.884600 H        1 SUBUNIT    0.0563
     12 H12           1.012200    1.881200    0.885100 H        1 SUBUNIT    0.0563
@<TRIPOS>BOND
     1    1    4 1
     2    2    5 1
     3    2    3 1
     4    2    9 1
     5    2   10 1
     6    3    4 1
     7    3   11 1
     8    3   12 1
     9    5    6 1
    10    5    7 1
    11    5    8 1
@<SCITEGIC>ATOM_PROPERTY
Formal Charge
SciTegic.value.StringValue
1 0
2 0
3 0
4 0
5 0
6 0
7 0
8 0
9 0
10 0
11 0
12 0

@<SCITEGIC>ATOM_PROPERTY
pdb_tempFactor
SciTegic.value.DoubleValue
1 0.00
2 0.00
3 0.00
4 0.00
5 0.00
6 0.00
7 0.00
8 0.00
9 0.00
10 0.00
11 0.00
12 0.00

@<SCITEGIC>ATOM_PROPERTY
pdb_occupancy
SciTegic.value.DoubleValue
1 1.00
2 1.00
3 1.00
4 1.00
5 1.00
6 1.00
7 1.00
8 1.00
9 1.00
10 1.00
11 1.00
12 1.00

#	copyright 2023 drugdesign.org
#	Creation time:	2024-01-11T10:58:44Z

@<TRIPOS>MOLECULE
propanol_360.sd
   12    11     0 0 0
SMALL
USER_CHARGES


@<TRIPOS>ATOM
      1 H1            0.000000    0.000000    0.000000 H        1 SUBUNIT    0.2100
      2 C2            2.945200    1.441100   -0.000700 C.3      1 SUBUNIT   -0.0327
      3 C3            1.414900    1.350200    0.000000 C.3      1 SUBUNIT    0.0429
      4 O4            0.950000    0.000000    0.000000 O.3      1 SUBUNIT   -0.3962
      5 C5            3.444600    2.885200   -0.124200 C.3      1 SUBUNIT   -0.0632
      6 H6            3.081000    3.334300   -1.069700 H        1 SUBUNIT    0.0231
      7 H7            3.072500    3.490800    0.725700 H        1 SUBUNIT    0.0231
      8 H8            4.552400    2.906600   -0.120900 H        1 SUBUNIT    0.0231
      9 H9            3.344100    0.988900    0.928900 H        1 SUBUNIT    0.0287
     10 H10           3.352400    0.835200   -0.834200 H        1 SUBUNIT    0.0287
     11 H11           1.011300    1.881500   -0.884600 H        1 SUBUNIT    0.0563
     12 H12           1.012200    1.881200    0.885100 H        1 SUBUNIT    0.0563
@<TRIPOS>BOND
     1    1    4 1
     2    2    5 1
     3    2    3 1
     4    2    9 1
     5    2   10 1
     6    3    4 1
     7    3   11 1
     8    3   12 1
     9    5    6 1
    10    5    7 1
    11    5    8 1
@<SCITEGIC>ATOM_PROPERTY
Formal Charge
SciTegic.value.StringValue
1 0
2 0
3 0
4 0
5 0
6 0
7 0
8 0
9 0
10 0
11 0
12 0

@<SCITEGIC>ATOM_PROPERTY
pdb_tempFactor
SciTegic.value.DoubleValue
1 0.00
2 0.00
3 0.00
4 0.00
5 0.00
6 0.00
7 0.00
8 0.00
9 0.00
10 0.00
11 0.00
12 0.00

@<SCITEGIC>ATOM_PROPERTY
pdb_occupancy
SciTegic.value.DoubleValue
1 1.00
2 1.00
3 1.00
4 1.00
5 1.00
6 1.00
7 1.00
8 1.00
9 1.00
10 1.00
11 1.00
12 1.00

#	copyright 2023 drugdesign.org
#	Creation time:	2024-01-11T10:58:44Z

@<TRIPOS>MOLECULE
propanol_360.sd
   12    11     0 0 0
SMALL
USER_CHARGES


@<TRIPOS>ATOM
      1 H1            0.000000    0.000000    0.000000 H        1 SUBUNIT    0.2100
      2 C2            2.945200    1.441100   -0.000700 C.3      1 SUBUNIT   -0.0327
      3 C3            1.414900    1.350200    0.000000 C.3      1 SUBUNIT    0.0429
      4 O4            0.950000    0.000000    0.000000 O.3      1 SUBUNIT   -0.3962
      5 C5            3.444500    2.887100   -0.099600 C.3      1 SUBUNIT   -0.0632
      6 H6            3.079900    3.352600   -1.036700 H        1 SUBUNIT    0.0231
      7 H7            3.073300    3.477900    0.761200 H        1 SUBUNIT    0.0231
      8 H8            4.552300    2.908500   -0.097000 H        1 SUBUNIT    0.0231
      9 H9            3.345100    0.972800    0.920400 H        1 SUBUNIT    0.0287
     10 H10           3.351600    0.849800   -0.845000 H        1 SUBUNIT    0.0287
     11 H11           1.011300    1.881500   -0.884600 H        1 SUBUNIT    0.0563
     12 H12           1.012200    1.881200    0.885100 H        1 SUBUNIT    0.0563
@<TRIPOS>BOND
     1    1    4 1
     2    2    5 1
     3    2    3 1
     4    2    9 1
     5    2   10 1
     6    3    4 1
     7    3   11 1
     8    3   12 1
     9    5    6 1
    10    5    7 1
    11    5    8 1
@<SCITEGIC>ATOM_PROPERTY
Formal Charge
SciTegic.value.StringValue
1 0
2 0
3 0
4 0
5 0
6 0
7 0
8 0
9 0
10 0
11 0
12 0

@<SCITEGIC>ATOM_PROPERTY
pdb_tempFactor
SciTegic.value.DoubleValue
1 0.00
2 0.00
3 0.00
4 0.00
5 0.00
6 0.00
7 0.00
8 0.00
9 0.00
10 0.00
11 0.00
12 0.00

@<SCITEGIC>ATOM_PROPERTY
pdb_occupancy
SciTegic.value.DoubleValue
1 1.00
2 1.00
3 1.00
4 1.00
5 1.00
6 1.00
7 1.00
8 1.00
9 1.00
10 1.00
11 1.00
12 1.00

#	copyright 2023 drugdesign.org
#	Creation time:	2024-01-11T10:58:44Z

@<TRIPOS>MOLECULE
propanol_360.sd
   12    11     0 0 0
SMALL
USER_CHARGES


@<TRIPOS>ATOM
      1 H1            0.000000    0.000000    0.000000 H        1 SUBUNIT    0.2100
      2 C2            2.945200    1.441100   -0.000700 C.3      1 SUBUNIT   -0.0327
      3 C3            1.414900    1.350200    0.000000 C.3      1 SUBUNIT    0.0429
      4 O4            0.950000    0.000000    0.000000 O.3      1 SUBUNIT   -0.3962
      5 C5            3.444400    2.888600   -0.074900 C.3      1 SUBUNIT   -0.0632
      6 H6            3.078900    3.370400   -1.003300 H        1 SUBUNIT    0.0231
      7 H7            3.074100    3.464300    0.796400 H        1 SUBUNIT    0.0231
      8 H8            4.552200    2.910000   -0.073100 H        1 SUBUNIT    0.0231
      9 H9            3.346000    0.956800    0.911700 H        1 SUBUNIT    0.0287
     10 H10           3.350700    0.864600   -0.855600 H        1 SUBUNIT    0.0287
     11 H11           1.011300    1.881500   -0.884600 H        1 SUBUNIT    0.0563
     12 H12           1.012200    1.881200    0.885100 H        1 SUBUNIT    0.0563
@<TRIPOS>BOND
     1    1    4 1
     2    2    5 1
     3    2    3 1
     4    2    9 1
     5    2   10 1
     6    3    4 1
     7    3   11 1
     8    3   12 1
     9    5    6 1
    10    5    7 1
    11    5    8 1
@<SCITEGIC>ATOM_PROPERTY
Formal Charge
SciTegic.value.StringValue
1 0
2 0
3 0
4 0
5 0
6 0
7 0
8 0
9 0
10 0
11 0
12 0

@<SCITEGIC>ATOM_PROPERTY
pdb_tempFactor
SciTegic.value.DoubleValue
1 0.00
2 0.00
3 0.00
4 0.00
5 0.00
6 0.00
7 0.00
8 0.00
9 0.00
10 0.00
11 0.00
12 0.00

@<SCITEGIC>ATOM_PROPERTY
pdb_occupancy
SciTegic.value.DoubleValue
1 1.00
2 1.00
3 1.00
4 1.00
5 1.00
6 1.00
7 1.00
8 1.00
9 1.00
10 1.00
11 1.00
12 1.00

#	copyright 2023 drugdesign.org
#	Creation time:	2024-01-11T10:58:44Z

@<TRIPOS>MOLECULE
propanol_360.sd
   12    11     0 0 0
SMALL
USER_CHARGES


@<TRIPOS>ATOM
      1 H1            0.000000    0.000000    0.000000 H        1 SUBUNIT    0.2100
      2 C2            2.945200    1.441100   -0.000700 C.3      1 SUBUNIT   -0.0327
      3 C3            1.414900    1.350200    0.000000 C.3      1 SUBUNIT    0.0429
      4 O4            0.950000    0.000000    0.000000 O.3      1 SUBUNIT   -0.3962
      5 C5            3.444300    2.889700   -0.050200 C.3      1 SUBUNIT   -0.0632
      6 H6            3.077900    3.387500   -0.969700 H        1 SUBUNIT    0.0231
      7 H7            3.075000    3.450100    0.831400 H        1 SUBUNIT    0.0231
      8 H8            4.552100    2.911000   -0.049100 H        1 SUBUNIT    0.0231
      9 H9            3.346900    0.941000    0.902700 H        1 SUBUNIT    0.0287
     10 H10           3.349800    0.879600   -0.866000 H        1 SUBUNIT    0.0287
     11 H11           1.011300    1.881500   -0.884600 H        1 SUBUNIT    0.0563
     12 H12           1.012200    1.881200    0.885100 H        1 SUBUNIT    0.0563
@<TRIPOS>BOND
     1    1    4 1
     2    2    5 1
     3    2    3 1
     4    2    9 1
     5    2   10 1
     6    3    4 1
     7    3   11 1
     8    3   12 1
     9    5    6 1
    10    5    7 1
    11    5    8 1
@<SCITEGIC>ATOM_PROPERTY
Formal Charge
SciTegic.value.StringValue
1 0
2 0
3 0
4 0
5 0
6 0
7 0
8 0
9 0
10 0
11 0
12 0

@<SCITEGIC>ATOM_PROPERTY
pdb_tempFactor
SciTegic.value.DoubleValue
1 0.00
2 0.00
3 0.00
4 0.00
5 0.00
6 0.00
7 0.00
8 0.00
9 0.00
10 0.00
11 0.00
12 0.00

@<SCITEGIC>ATOM_PROPERTY
pdb_occupancy
SciTegic.value.DoubleValue
1 1.00
2 1.00
3 1.00
4 1.00
5 1.00
6 1.00
7 1.00
8 1.00
9 1.00
10 1.00
11 1.00
12 1.00

#	copyright 2023 drugdesign.org
#	Creation time:	2024-01-11T10:58:44Z

@<TRIPOS>MOLECULE
propanol_360.sd
   12    11     0 0 0
SMALL
USER_CHARGES


@<TRIPOS>ATOM
      1 H1            0.000000    0.000000    0.000000 H        1 SUBUNIT    0.2100
      2 C2            2.945200    1.441100   -0.000700 C.3      1 SUBUNIT   -0.0327
      3 C3            1.414900    1.350200    0.000000 C.3      1 SUBUNIT    0.0429
      4 O4            0.950000    0.000000    0.000000 O.3      1 SUBUNIT   -0.3962
      5 C5            3.444300    2.890400   -0.025500 C.3      1 SUBUNIT   -0.0632
      6 H6            3.076900    3.404100   -0.935800 H        1 SUBUNIT    0.0231
      7 H7            3.075900    3.435300    0.866200 H        1 SUBUNIT    0.0231
      8 H8            4.552100    2.911600   -0.025200 H        1 SUBUNIT    0.0231
      9 H9            3.347900    0.925300    0.893500 H        1 SUBUNIT    0.0287
     10 H10           3.348900    0.894800   -0.876000 H        1 SUBUNIT    0.0287
     11 H11           1.011300    1.881500   -0.884600 H        1 SUBUNIT    0.0563
     12 H12           1.012200    1.881200    0.885100 H        1 SUBUNIT    0.0563
@<TRIPOS>BOND
     1    1    4 1
     2    2    5 1
     3    2    3 1
     4    2    9 1
     5    2   10 1
     6    3    4 1
     7    3   11 1
     8    3   12 1
     9    5    6 1
    10    5    7 1
    11    5    8 1
@<SCITEGIC>ATOM_PROPERTY
Formal Charge
SciTegic.value.StringValue
1 0
2 0
3 0
4 0
5 0
6 0
7 0
8 0
9 0
10 0
11 0
12 0

@<SCITEGIC>ATOM_PROPERTY
pdb_tempFactor
SciTegic.value.DoubleValue
1 0.00
2 0.00
3 0.00
4 0.00
5 0.00
6 0.00
7 0.00
8 0.00
9 0.00
10 0.00
11 0.00
12 0.00

@<SCITEGIC>ATOM_PROPERTY
pdb_occupancy
SciTegic.value.DoubleValue
1 1.00
2 1.00
3 1.00
4 1.00
5 1.00
6 1.00
7 1.00
8 1.00
9 1.00
10 1.00
11 1.00
12 1.00

#	copyright 2023 drugdesign.org
#	Creation time:	2024-01-11T10:58:44Z

@<TRIPOS>MOLECULE
propanol_360.sd
   12    11     0 0 0
SMALL
USER_CHARGES


@<TRIPOS>ATOM
      1 H1            0.000000    0.000000    0.000000 H        1 SUBUNIT    0.2100
      2 C2            2.945200    1.441100   -0.000700 C.3      1 SUBUNIT   -0.0327
      3 C3            1.414900    1.350200    0.000000 C.3      1 SUBUNIT    0.0429
      4 O4            0.950000    0.000000    0.000000 O.3      1 SUBUNIT   -0.3962
      5 C5            3.444300    2.890600   -0.000700 C.3      1 SUBUNIT   -0.0632
      6 H6            3.076000    3.420100   -0.901600 H        1 SUBUNIT    0.0231
      7 H7            3.076800    3.419900    0.900600 H        1 SUBUNIT    0.0231
      8 H8            4.552100    2.911800   -0.001200 H        1 SUBUNIT    0.0231
      9 H9            3.348800    0.909800    0.883900 H        1 SUBUNIT    0.0287
     10 H10           3.348000    0.910100   -0.885800 H        1 SUBUNIT    0.0287
     11 H11           1.011300    1.881500   -0.884600 H        1 SUBUNIT    0.0563
     12 H12           1.012200    1.881200    0.885100 H        1 SUBUNIT    0.0563
@<TRIPOS>BOND
     1    1    4 1
     2    2    5 1
     3    2    3 1
     4    2    9 1
     5    2   10 1
     6    3    4 1
     7    3   11 1
     8    3   12 1
     9    5    6 1
    10    5    7 1
    11    5    8 1
@<SCITEGIC>ATOM_PROPERTY
Formal Charge
SciTegic.value.StringValue
1 0
2 0
3 0
4 0
5 0
6 0
7 0
8 0
9 0
10 0
11 0
12 0

@<SCITEGIC>ATOM_PROPERTY
pdb_tempFactor
SciTegic.value.DoubleValue
1 0.00
2 0.00
3 0.00
4 0.00
5 0.00
6 0.00
7 0.00
8 0.00
9 0.00
10 0.00
11 0.00
12 0.00

@<SCITEGIC>ATOM_PROPERTY
pdb_occupancy
SciTegic.value.DoubleValue
1 1.00
2 1.00
3 1.00
4 1.00
5 1.00
6 1.00
7 1.00
8 1.00
9 1.00
10 1.00
11 1.00
12 1.00

#	copyright 2023 drugdesign.org
#	Creation time:	2024-01-11T10:58:44Z

@<TRIPOS>MOLECULE
propanol_360.sd
   12    11     0 0 0
SMALL
USER_CHARGES


@<TRIPOS>ATOM
      1 H1            0.000000    0.000000    0.000000 H        1 SUBUNIT    0.2100
      2 C2            2.945200    1.441100   -0.000700 C.3      1 SUBUNIT   -0.0327
      3 C3            1.414900    1.350200    0.000000 C.3      1 SUBUNIT    0.0429
      4 O4            0.950000    0.000000    0.000000 O.3      1 SUBUNIT   -0.3962
      5 C5            3.444300    2.890400    0.024000 C.3      1 SUBUNIT   -0.0632
      6 H6            3.075100    3.435500   -0.867100 H        1 SUBUNIT    0.0231
      7 H7            3.077700    3.403900    0.934800 H        1 SUBUNIT    0.0231
      8 H8            4.552100    2.911600    0.022700 H        1 SUBUNIT    0.0231
      9 H9            3.349700    0.894500    0.874100 H        1 SUBUNIT    0.0287
     10 H10           3.347000    0.925600   -0.895400 H        1 SUBUNIT    0.0287
     11 H11           1.011300    1.881500   -0.884600 H        1 SUBUNIT    0.0563
     12 H12           1.012200    1.881200    0.885100 H        1 SUBUNIT    0.0563
@<TRIPOS>BOND
     1    1    4 1
     2    2    5 1
     3    2    3 1
     4    2    9 1
     5    2   10 1
     6    3    4 1
     7    3   11 1
     8    3   12 1
     9    5    6 1
    10    5    7 1
    11    5    8 1
@<SCITEGIC>ATOM_PROPERTY
Formal Charge
SciTegic.value.StringValue
1 0
2 0
3 0
4 0
5 0
6 0
7 0
8 0
9 0
10 0
11 0
12 0

@<SCITEGIC>ATOM_PROPERTY
pdb_tempFactor
SciTegic.value.DoubleValue
1 0.00
2 0.00
3 0.00
4 0.00
5 0.00
6 0.00
7 0.00
8 0.00
9 0.00
10 0.00
11 0.00
12 0.00

@<SCITEGIC>ATOM_PROPERTY
pdb_occupancy
SciTegic.value.DoubleValue
1 1.00
2 1.00
3 1.00
4 1.00
5 1.00
6 1.00
7 1.00
8 1.00
9 1.00
10 1.00
11 1.00
12 1.00

#	copyright 2023 drugdesign.org
#	Creation time:	2024-01-11T10:58:44Z

@<TRIPOS>MOLECULE
propanol_360.sd
   12    11     0 0 0
SMALL
USER_CHARGES


@<TRIPOS>ATOM
      1 H1            0.000000    0.000000    0.000000 H        1 SUBUNIT    0.2100
      2 C2            2.945200    1.441100   -0.000700 C.3      1 SUBUNIT   -0.0327
      3 C3            1.414900    1.350200    0.000000 C.3      1 SUBUNIT    0.0429
      4 O4            0.950000    0.000000    0.000000 O.3      1 SUBUNIT   -0.3962
      5 C5            3.444400    2.889700    0.048700 C.3      1 SUBUNIT   -0.0632
      6 H6            3.074200    3.450300   -0.832400 H        1 SUBUNIT    0.0231
      7 H7            3.078700    3.387300    0.968800 H        1 SUBUNIT    0.0231
      8 H8            4.552200    2.911000    0.046700 H        1 SUBUNIT    0.0231
      9 H9            3.350600    0.879400    0.864000 H        1 SUBUNIT    0.0287
     10 H10           3.346100    0.941300   -0.904600 H        1 SUBUNIT    0.0287
     11 H11           1.011300    1.881500   -0.884600 H        1 SUBUNIT    0.0563
     12 H12           1.012200    1.881200    0.885100 H        1 SUBUNIT    0.0563
@<TRIPOS>BOND
     1    1    4 1
     2    2    5 1
     3    2    3 1
     4    2    9 1
     5    2   10 1
     6    3    4 1
     7    3   11 1
     8    3   12 1
     9    5    6 1
    10    5    7 1
    11    5    8 1
@<SCITEGIC>ATOM_PROPERTY
Formal Charge
SciTegic.value.StringValue
1 0
2 0
3 0
4 0
5 0
6 0
7 0
8 0
9 0
10 0
11 0
12 0

@<SCITEGIC>ATOM_PROPERTY
pdb_tempFactor
SciTegic.value.DoubleValue
1 0.00
2 0.00
3 0.00
4 0.00
5 0.00
6 0.00
7 0.00
8 0.00
9 0.00
10 0.00
11 0.00
12 0.00

@<SCITEGIC>ATOM_PROPERTY
pdb_occupancy
SciTegic.value.DoubleValue
1 1.00
2 1.00
3 1.00
4 1.00
5 1.00
6 1.00
7 1.00
8 1.00
9 1.00
10 1.00
11 1.00
12 1.00

#	copyright 2023 drugdesign.org
#	Creation time:	2024-01-11T10:58:44Z

@<TRIPOS>MOLECULE
propanol_360.sd
   12    11     0 0 0
SMALL
USER_CHARGES


@<TRIPOS>ATOM
      1 H1            0.000000    0.000000    0.000000 H        1 SUBUNIT    0.2100
      2 C2            2.945200    1.441100   -0.000700 C.3      1 SUBUNIT   -0.0327
      3 C3            1.414900    1.350200    0.000000 C.3      1 SUBUNIT    0.0429
      4 O4            0.950000    0.000000    0.000000 O.3      1 SUBUNIT   -0.3962
      5 C5            3.444500    2.888600    0.073500 C.3      1 SUBUNIT   -0.0632
      6 H6            3.073400    3.464500   -0.797400 H        1 SUBUNIT    0.0231
      7 H7            3.079800    3.370100    1.002400 H        1 SUBUNIT    0.0231
      8 H8            4.552300    2.910000    0.070600 H        1 SUBUNIT    0.0231
      9 H9            3.351500    0.864400    0.853700 H        1 SUBUNIT    0.0287
     10 H10           3.345200    0.957100   -0.913600 H        1 SUBUNIT    0.0287
     11 H11           1.011300    1.881500   -0.884600 H        1 SUBUNIT    0.0563
     12 H12           1.012200    1.881200    0.885100 H        1 SUBUNIT    0.0563
@<TRIPOS>BOND
     1    1    4 1
     2    2    5 1
     3    2    3 1
     4    2    9 1
     5    2   10 1
     6    3    4 1
     7    3   11 1
     8    3   12 1
     9    5    6 1
    10    5    7 1
    11    5    8 1
@<SCITEGIC>ATOM_PROPERTY
Formal Charge
SciTegic.value.StringValue
1 0
2 0
3 0
4 0
5 0
6 0
7 0
8 0
9 0
10 0
11 0
12 0

@<SCITEGIC>ATOM_PROPERTY
pdb_tempFactor
SciTegic.value.DoubleValue
1 0.00
2 0.00
3 0.00
4 0.00
5 0.00
6 0.00
7 0.00
8 0.00
9 0.00
10 0.00
11 0.00
12 0.00

@<SCITEGIC>ATOM_PROPERTY
pdb_occupancy
SciTegic.value.DoubleValue
1 1.00
2 1.00
3 1.00
4 1.00
5 1.00
6 1.00
7 1.00
8 1.00
9 1.00
10 1.00
11 1.00
12 1.00

#	copyright 2023 drugdesign.org
#	Creation time:	2024-01-11T10:58:44Z

@<TRIPOS>MOLECULE
propanol_360.sd
   12    11     0 0 0
SMALL
USER_CHARGES


@<TRIPOS>ATOM
      1 H1            0.000000    0.000000    0.000000 H        1 SUBUNIT    0.2100
      2 C2            2.945200    1.441100   -0.000700 C.3      1 SUBUNIT   -0.0327
      3 C3            1.414900    1.350200    0.000000 C.3      1 SUBUNIT    0.0429
      4 O4            0.950000    0.000000    0.000000 O.3      1 SUBUNIT   -0.3962
      5 C5            3.444600    2.887100    0.098100 C.3      1 SUBUNIT   -0.0632
      6 H6            3.072600    3.478100   -0.762100 H        1 SUBUNIT    0.0231
      7 H7            3.080900    3.352300    1.035700 H        1 SUBUNIT    0.0231
      8 H8            4.552300    2.908500    0.094500 H        1 SUBUNIT    0.0231
      9 H9            3.352300    0.849600    0.843100 H        1 SUBUNIT    0.0287
     10 H10           3.344200    0.973100   -0.922300 H        1 SUBUNIT    0.0287
     11 H11           1.011300    1.881500   -0.884600 H        1 SUBUNIT    0.0563
     12 H12           1.012200    1.881200    0.885100 H        1 SUBUNIT    0.0563
@<TRIPOS>BOND
     1    1    4 1
     2    2    5 1
     3    2    3 1
     4    2    9 1
     5    2   10 1
     6    3    4 1
     7    3   11 1
     8    3   12 1
     9    5    6 1
    10    5    7 1
    11    5    8 1
@<SCITEGIC>ATOM_PROPERTY
Formal Charge
SciTegic.value.StringValue
1 0
2 0
3 0
4 0
5 0
6 0
7 0
8 0
9 0
10 0
11 0
12 0

@<SCITEGIC>ATOM_PROPERTY
pdb_tempFactor
SciTegic.value.DoubleValue
1 0.00
2 0.00
3 0.00
4 0.00
5 0.00
6 0.00
7 0.00
8 0.00
9 0.00
10 0.00
11 0.00
12 0.00

@<SCITEGIC>ATOM_PROPERTY
pdb_occupancy
SciTegic.value.DoubleValue
1 1.00
2 1.00
3 1.00
4 1.00
5 1.00
6 1.00
7 1.00
8 1.00
9 1.00
10 1.00
11 1.00
12 1.00

#	copyright 2023 drugdesign.org
#	Creation time:	2024-01-11T10:58:44Z

@<TRIPOS>MOLECULE
propanol_360.sd
   12    11     0 0 0
SMALL
USER_CHARGES


@<TRIPOS>ATOM
      1 H1            0.000000    0.000000    0.000000 H        1 SUBUNIT    0.2100
      2 C2            2.945200    1.441100   -0.000700 C.3      1 SUBUNIT   -0.0327
      3 C3            1.414900    1.350200    0.000000 C.3      1 SUBUNIT    0.0429
      4 O4            0.950000    0.000000    0.000000 O.3      1 SUBUNIT   -0.3962
      5 C5            3.444700    2.885200    0.122800 C.3      1 SUBUNIT   -0.0632
      6 H6            3.071800    3.491000   -0.726700 H        1 SUBUNIT    0.0231
      7 H7            3.082000    3.334000    1.068700 H        1 SUBUNIT    0.0231
      8 H8            4.552500    2.906600    0.118400 H        1 SUBUNIT    0.0231
      9 H9            3.353200    0.835000    0.832200 H        1 SUBUNIT    0.0287
     10 H10           3.343300    0.989200   -0.930700 H        1 SUBUNIT    0.0287
     11 H11           1.011300    1.881500   -0.884600 H        1 SUBUNIT    0.0563
     12 H12           1.012200    1.881200    0.885100 H        1 SUBUNIT    0.0563
@<TRIPOS>BOND
     1    1    4 1
     2    2    5 1
     3    2    3 1
     4    2    9 1
     5    2   10 1
     6    3    4 1
     7    3   11 1
     8    3   12 1
     9    5    6 1
    10    5    7 1
    11    5    8 1
@<SCITEGIC>ATOM_PROPERTY
Formal Charge
SciTegic.value.StringValue
1 0
2 0
3 0
4 0
5 0
6 0
7 0
8 0
9 0
10 0
11 0
12 0

@<SCITEGIC>ATOM_PROPERTY
pdb_tempFactor
SciTegic.value.DoubleValue
1 0.00
2 0.00
3 0.00
4 0.00
5 0.00
6 0.00
7 0.00
8 0.00
9 0.00
10 0.00
11 0.00
12 0.00

@<SCITEGIC>ATOM_PROPERTY
pdb_occupancy
SciTegic.value.DoubleValue
1 1.00
2 1.00
3 1.00
4 1.00
5 1.00
6 1.00
7 1.00
8 1.00
9 1.00
10 1.00
11 1.00
12 1.00

#	copyright 2023 drugdesign.org
#	Creation time:	2024-01-11T10:58:44Z

@<TRIPOS>MOLECULE
propanol_360.sd
   12    11     0 0 0
SMALL
USER_CHARGES


@<TRIPOS>ATOM
      1 H1            0.000000    0.000000    0.000000 H        1 SUBUNIT    0.2100
      2 C2            2.945200    1.441100   -0.000700 C.3      1 SUBUNIT   -0.0327
      3 C3            1.414900    1.350200    0.000000 C.3      1 SUBUNIT    0.0429
      4 O4            0.950000    0.000000    0.000000 O.3      1 SUBUNIT   -0.3962
      5 C5            3.444800    2.882800    0.147400 C.3      1 SUBUNIT   -0.0632
      6 H6            3.071100    3.503400   -0.691000 H        1 SUBUNIT    0.0231
      7 H7            3.083100    3.315000    1.101400 H        1 SUBUNIT    0.0231
      8 H8            4.552600    2.904300    0.142300 H        1 SUBUNIT    0.0231
      9 H9            3.354100    0.820500    0.821100 H        1 SUBUNIT    0.0287
     10 H10           3.342300    1.005500   -0.938900 H        1 SUBUNIT    0.0287
     11 H11           1.011300    1.881500   -0.884600 H        1 SUBUNIT    0.0563
     12 H12           1.012200    1.881200    0.885100 H        1 SUBUNIT    0.0563
@<TRIPOS>BOND
     1    1    4 1
     2    2    5 1
     3    2    3 1
     4    2    9 1
     5    2   10 1
     6    3    4 1
     7    3   11 1
     8    3   12 1
     9    5    6 1
    10    5    7 1
    11    5    8 1
@<SCITEGIC>ATOM_PROPERTY
Formal Charge
SciTegic.value.StringValue
1 0
2 0
3 0
4 0
5 0
6 0
7 0
8 0
9 0
10 0
11 0
12 0

@<SCITEGIC>ATOM_PROPERTY
pdb_tempFactor
SciTegic.value.DoubleValue
1 0.00
2 0.00
3 0.00
4 0.00
5 0.00
6 0.00
7 0.00
8 0.00
9 0.00
10 0.00
11 0.00
12 0.00

@<SCITEGIC>ATOM_PROPERTY
pdb_occupancy
SciTegic.value.DoubleValue
1 1.00
2 1.00
3 1.00
4 1.00
5 1.00
6 1.00
7 1.00
8 1.00
9 1.00
10 1.00
11 1.00
12 1.00

#	copyright 2023 drugdesign.org
#	Creation time:	2024-01-11T10:58:44Z

@<TRIPOS>MOLECULE
propanol_360.sd
   12    11     0 0 0
SMALL
USER_CHARGES


@<TRIPOS>ATOM
      1 H1            0.000000    0.000000    0.000000 H        1 SUBUNIT    0.2100
      2 C2            2.945200    1.441100   -0.000700 C.3      1 SUBUNIT   -0.0327
      3 C3            1.414900    1.350200    0.000000 C.3      1 SUBUNIT    0.0429
      4 O4            0.950000    0.000000    0.000000 O.3      1 SUBUNIT   -0.3962
      5 C5            3.445000    2.880000    0.172000 C.3      1 SUBUNIT   -0.0632
      6 H6            3.070400    3.515100   -0.655100 H        1 SUBUNIT    0.0231
      7 H7            3.084300    3.295600    1.133700 H        1 SUBUNIT    0.0231
      8 H8            4.552800    2.901600    0.166100 H        1 SUBUNIT    0.0231
      9 H9            3.354900    0.806300    0.809800 H        1 SUBUNIT    0.0287
     10 H10           3.341300    1.021900   -0.946700 H        1 SUBUNIT    0.0287
     11 H11           1.011300    1.881500   -0.884600 H        1 SUBUNIT    0.0563
     12 H12           1.012200    1.881200    0.885100 H        1 SUBUNIT    0.0563
@<TRIPOS>BOND
     1    1    4 1
     2    2    5 1
     3    2    3 1
     4    2    9 1
     5    2   10 1
     6    3    4 1
     7    3   11 1
     8    3   12 1
     9    5    6 1
    10    5    7 1
    11    5    8 1
@<SCITEGIC>ATOM_PROPERTY
Formal Charge
SciTegic.value.StringValue
1 0
2 0
3 0
4 0
5 0
6 0
7 0
8 0
9 0
10 0
11 0
12 0

@<SCITEGIC>ATOM_PROPERTY
pdb_tempFactor
SciTegic.value.DoubleValue
1 0.00
2 0.00
3 0.00
4 0.00
5 0.00
6 0.00
7 0.00
8 0.00
9 0.00
10 0.00
11 0.00
12 0.00

@<SCITEGIC>ATOM_PROPERTY
pdb_occupancy
SciTegic.value.DoubleValue
1 1.00
2 1.00
3 1.00
4 1.00
5 1.00
6 1.00
7 1.00
8 1.00
9 1.00
10 1.00
11 1.00
12 1.00

#	copyright 2023 drugdesign.org
#	Creation time:	2024-01-11T10:58:44Z

@<TRIPOS>MOLECULE
propanol_360.sd
   12    11     0 0 0
SMALL
USER_CHARGES


@<TRIPOS>ATOM
      1 H1            0.000000    0.000000    0.000000 H        1 SUBUNIT    0.2100
      2 C2            2.945200    1.441100   -0.000700 C.3      1 SUBUNIT   -0.0327
      3 C3            1.414900    1.350200    0.000000 C.3      1 SUBUNIT    0.0429
      4 O4            0.950000    0.000000    0.000000 O.3      1 SUBUNIT   -0.3962
      5 C5            3.445200    2.876800    0.196500 C.3      1 SUBUNIT   -0.0632
      6 H6            3.069800    3.526200   -0.619000 H        1 SUBUNIT    0.0231
      7 H7            3.085500    3.275500    1.165700 H        1 SUBUNIT    0.0231
      8 H8            4.553000    2.898500    0.189800 H        1 SUBUNIT    0.0231
      9 H9            3.355700    0.792300    0.798200 H        1 SUBUNIT    0.0287
     10 H10           3.340300    1.038400   -0.954300 H        1 SUBUNIT    0.0287
     11 H11           1.011300    1.881500   -0.884600 H        1 SUBUNIT    0.0563
     12 H12           1.012200    1.881200    0.885100 H        1 SUBUNIT    0.0563
@<TRIPOS>BOND
     1    1    4 1
     2    2    5 1
     3    2    3 1
     4    2    9 1
     5    2   10 1
     6    3    4 1
     7    3   11 1
     8    3   12 1
     9    5    6 1
    10    5    7 1
    11    5    8 1
@<SCITEGIC>ATOM_PROPERTY
Formal Charge
SciTegic.value.StringValue
1 0
2 0
3 0
4 0
5 0
6 0
7 0
8 0
9 0
10 0
11 0
12 0

@<SCITEGIC>ATOM_PROPERTY
pdb_tempFactor
SciTegic.value.DoubleValue
1 0.00
2 0.00
3 0.00
4 0.00
5 0.00
6 0.00
7 0.00
8 0.00
9 0.00
10 0.00
11 0.00
12 0.00

@<SCITEGIC>ATOM_PROPERTY
pdb_occupancy
SciTegic.value.DoubleValue
1 1.00
2 1.00
3 1.00
4 1.00
5 1.00
6 1.00
7 1.00
8 1.00
9 1.00
10 1.00
11 1.00
12 1.00

#	copyright 2023 drugdesign.org
#	Creation time:	2024-01-11T10:58:44Z

@<TRIPOS>MOLECULE
propanol_360.sd
   12    11     0 0 0
SMALL
USER_CHARGES


@<TRIPOS>ATOM
      1 H1            0.000000    0.000000    0.000000 H        1 SUBUNIT    0.2100
      2 C2            2.945200    1.441100   -0.000700 C.3      1 SUBUNIT   -0.0327
      3 C3            1.414900    1.350200    0.000000 C.3      1 SUBUNIT    0.0429
      4 O4            0.950000    0.000000    0.000000 O.3      1 SUBUNIT   -0.3962
      5 C5            3.445400    2.873100    0.221000 C.3      1 SUBUNIT   -0.0632
      6 H6            3.069200    3.536600   -0.582700 H        1 SUBUNIT    0.0231
      7 H7            3.086700    3.254900    1.197300 H        1 SUBUNIT    0.0231
      8 H8            4.553200    2.894900    0.213500 H        1 SUBUNIT    0.0231
      9 H9            3.356500    0.778500    0.786300 H        1 SUBUNIT    0.0287
     10 H10           3.339300    1.055100   -0.961600 H        1 SUBUNIT    0.0287
     11 H11           1.011300    1.881500   -0.884600 H        1 SUBUNIT    0.0563
     12 H12           1.012200    1.881200    0.885100 H        1 SUBUNIT    0.0563
@<TRIPOS>BOND
     1    1    4 1
     2    2    5 1
     3    2    3 1
     4    2    9 1
     5    2   10 1
     6    3    4 1
     7    3   11 1
     8    3   12 1
     9    5    6 1
    10    5    7 1
    11    5    8 1
@<SCITEGIC>ATOM_PROPERTY
Formal Charge
SciTegic.value.StringValue
1 0
2 0
3 0
4 0
5 0
6 0
7 0
8 0
9 0
10 0
11 0
12 0

@<SCITEGIC>ATOM_PROPERTY
pdb_tempFactor
SciTegic.value.DoubleValue
1 0.00
2 0.00
3 0.00
4 0.00
5 0.00
6 0.00
7 0.00
8 0.00
9 0.00
10 0.00
11 0.00
12 0.00

@<SCITEGIC>ATOM_PROPERTY
pdb_occupancy
SciTegic.value.DoubleValue
1 1.00
2 1.00
3 1.00
4 1.00
5 1.00
6 1.00
7 1.00
8 1.00
9 1.00
10 1.00
11 1.00
12 1.00

#	copyright 2023 drugdesign.org
#	Creation time:	2024-01-11T10:58:44Z

@<TRIPOS>MOLECULE
propanol_360.sd
   12    11     0 0 0
SMALL
USER_CHARGES


@<TRIPOS>ATOM
      1 H1            0.000000    0.000000    0.000000 H        1 SUBUNIT    0.2100
      2 C2            2.945200    1.441100   -0.000700 C.3      1 SUBUNIT   -0.0327
      3 C3            1.414900    1.350200    0.000000 C.3      1 SUBUNIT    0.0429
      4 O4            0.950000    0.000000    0.000000 O.3      1 SUBUNIT   -0.3962
      5 C5            3.445700    2.869000    0.245400 C.3      1 SUBUNIT   -0.0632
      6 H6            3.068600    3.546400   -0.546200 H        1 SUBUNIT    0.0231
      7 H7            3.088000    3.233800    1.228600 H        1 SUBUNIT    0.0231
      8 H8            4.553500    2.891000    0.237200 H        1 SUBUNIT    0.0231
      9 H9            3.357300    0.764900    0.774200 H        1 SUBUNIT    0.0287
     10 H10           3.338300    1.071900   -0.968600 H        1 SUBUNIT    0.0287
     11 H11           1.011300    1.881500   -0.884600 H        1 SUBUNIT    0.0563
     12 H12           1.012200    1.881200    0.885100 H        1 SUBUNIT    0.0563
@<TRIPOS>BOND
     1    1    4 1
     2    2    5 1
     3    2    3 1
     4    2    9 1
     5    2   10 1
     6    3    4 1
     7    3   11 1
     8    3   12 1
     9    5    6 1
    10    5    7 1
    11    5    8 1
@<SCITEGIC>ATOM_PROPERTY
Formal Charge
SciTegic.value.StringValue
1 0
2 0
3 0
4 0
5 0
6 0
7 0
8 0
9 0
10 0
11 0
12 0

@<SCITEGIC>ATOM_PROPERTY
pdb_tempFactor
SciTegic.value.DoubleValue
1 0.00
2 0.00
3 0.00
4 0.00
5 0.00
6 0.00
7 0.00
8 0.00
9 0.00
10 0.00
11 0.00
12 0.00

@<SCITEGIC>ATOM_PROPERTY
pdb_occupancy
SciTegic.value.DoubleValue
1 1.00
2 1.00
3 1.00
4 1.00
5 1.00
6 1.00
7 1.00
8 1.00
9 1.00
10 1.00
11 1.00
12 1.00

#	copyright 2023 drugdesign.org
#	Creation time:	2024-01-11T10:58:44Z

@<TRIPOS>MOLECULE
propanol_360.sd
   12    11     0 0 0
SMALL
USER_CHARGES


@<TRIPOS>ATOM
      1 H1            0.000000    0.000000    0.000000 H        1 SUBUNIT    0.2100
      2 C2            2.945200    1.441100   -0.000700 C.3      1 SUBUNIT   -0.0327
      3 C3            1.414900    1.350200    0.000000 C.3      1 SUBUNIT    0.0429
      4 O4            0.950000    0.000000    0.000000 O.3      1 SUBUNIT   -0.3962
      5 C5            3.446000    2.864500    0.269700 C.3      1 SUBUNIT   -0.0632
      6 H6            3.068100    3.555600   -0.509600 H        1 SUBUNIT    0.0231
      7 H7            3.089300    3.212100    1.259500 H        1 SUBUNIT    0.0231
      8 H8            4.553700    2.886600    0.260700 H        1 SUBUNIT    0.0231
      9 H9            3.358100    0.751500    0.761900 H        1 SUBUNIT    0.0287
     10 H10           3.337300    1.088800   -0.975300 H        1 SUBUNIT    0.0287
     11 H11           1.011300    1.881500   -0.884600 H        1 SUBUNIT    0.0563
     12 H12           1.012200    1.881200    0.885100 H        1 SUBUNIT    0.0563
@<TRIPOS>BOND
     1    1    4 1
     2    2    5 1
     3    2    3 1
     4    2    9 1
     5    2   10 1
     6    3    4 1
     7    3   11 1
     8    3   12 1
     9    5    6 1
    10    5    7 1
    11    5    8 1
@<SCITEGIC>ATOM_PROPERTY
Formal Charge
SciTegic.value.StringValue
1 0
2 0
3 0
4 0
5 0
6 0
7 0
8 0
9 0
10 0
11 0
12 0

@<SCITEGIC>ATOM_PROPERTY
pdb_tempFactor
SciTegic.value.DoubleValue
1 0.00
2 0.00
3 0.00
4 0.00
5 0.00
6 0.00
7 0.00
8 0.00
9 0.00
10 0.00
11 0.00
12 0.00

@<SCITEGIC>ATOM_PROPERTY
pdb_occupancy
SciTegic.value.DoubleValue
1 1.00
2 1.00
3 1.00
4 1.00
5 1.00
6 1.00
7 1.00
8 1.00
9 1.00
10 1.00
11 1.00
12 1.00

#	copyright 2023 drugdesign.org
#	Creation time:	2024-01-11T10:58:44Z

@<TRIPOS>MOLECULE
propanol_360.sd
   12    11     0 0 0
SMALL
USER_CHARGES


@<TRIPOS>ATOM
      1 H1            0.000000    0.000000    0.000000 H        1 SUBUNIT    0.2100
      2 C2            2.945200    1.441100   -0.000700 C.3      1 SUBUNIT   -0.0327
      3 C3            1.414900    1.350200    0.000000 C.3      1 SUBUNIT    0.0429
      4 O4            0.950000    0.000000    0.000000 O.3      1 SUBUNIT   -0.3962
      5 C5            3.446300    2.859600    0.294000 C.3      1 SUBUNIT   -0.0632
      6 H6            3.067600    3.564200   -0.472800 H        1 SUBUNIT    0.0231
      7 H7            3.090600    3.189900    1.290000 H        1 SUBUNIT    0.0231
      8 H8            4.554000    2.881900    0.284200 H        1 SUBUNIT    0.0231
      9 H9            3.358900    0.738300    0.749300 H        1 SUBUNIT    0.0287
     10 H10           3.336300    1.105800   -0.981700 H        1 SUBUNIT    0.0287
     11 H11           1.011300    1.881500   -0.884600 H        1 SUBUNIT    0.0563
     12 H12           1.012200    1.881200    0.885100 H        1 SUBUNIT    0.0563
@<TRIPOS>BOND
     1    1    4 1
     2    2    5 1
     3    2    3 1
     4    2    9 1
     5    2   10 1
     6    3    4 1
     7    3   11 1
     8    3   12 1
     9    5    6 1
    10    5    7 1
    11    5    8 1
@<SCITEGIC>ATOM_PROPERTY
Formal Charge
SciTegic.value.StringValue
1 0
2 0
3 0
4 0
5 0
6 0
7 0
8 0
9 0
10 0
11 0
12 0

@<SCITEGIC>ATOM_PROPERTY
pdb_tempFactor
SciTegic.value.DoubleValue
1 0.00
2 0.00
3 0.00
4 0.00
5 0.00
6 0.00
7 0.00
8 0.00
9 0.00
10 0.00
11 0.00
12 0.00

@<SCITEGIC>ATOM_PROPERTY
pdb_occupancy
SciTegic.value.DoubleValue
1 1.00
2 1.00
3 1.00
4 1.00
5 1.00
6 1.00
7 1.00
8 1.00
9 1.00
10 1.00
11 1.00
12 1.00

#	copyright 2023 drugdesign.org
#	Creation time:	2024-01-11T10:58:44Z

@<TRIPOS>MOLECULE
propanol_360.sd
   12    11     0 0 0
SMALL
USER_CHARGES


@<TRIPOS>ATOM
      1 H1            0.000000    0.000000    0.000000 H        1 SUBUNIT    0.2100
      2 C2            2.945200    1.441100   -0.000700 C.3      1 SUBUNIT   -0.0327
      3 C3            1.414900    1.350200    0.000000 C.3      1 SUBUNIT    0.0429
      4 O4            0.950000    0.000000    0.000000 O.3      1 SUBUNIT   -0.3962
      5 C5            3.446600    2.854300    0.318100 C.3      1 SUBUNIT   -0.0632
      6 H6            3.067100    3.572100   -0.435900 H        1 SUBUNIT    0.0231
      7 H7            3.092000    3.167100    1.320100 H        1 SUBUNIT    0.0231
      8 H8            4.554300    2.876700    0.307600 H        1 SUBUNIT    0.0231
      9 H9            3.359700    0.725300    0.736600 H        1 SUBUNIT    0.0287
     10 H10           3.335300    1.123000   -0.987800 H        1 SUBUNIT    0.0287
     11 H11           1.011300    1.881500   -0.884600 H        1 SUBUNIT    0.0563
     12 H12           1.012200    1.881200    0.885100 H        1 SUBUNIT    0.0563
@<TRIPOS>BOND
     1    1    4 1
     2    2    5 1
     3    2    3 1
     4    2    9 1
     5    2   10 1
     6    3    4 1
     7    3   11 1
     8    3   12 1
     9    5    6 1
    10    5    7 1
    11    5    8 1
@<SCITEGIC>ATOM_PROPERTY
Formal Charge
SciTegic.value.StringValue
1 0
2 0
3 0
4 0
5 0
6 0
7 0
8 0
9 0
10 0
11 0
12 0

@<SCITEGIC>ATOM_PROPERTY
pdb_tempFactor
SciTegic.value.DoubleValue
1 0.00
2 0.00
3 0.00
4 0.00
5 0.00
6 0.00
7 0.00
8 0.00
9 0.00
10 0.00
11 0.00
12 0.00

@<SCITEGIC>ATOM_PROPERTY
pdb_occupancy
SciTegic.value.DoubleValue
1 1.00
2 1.00
3 1.00
4 1.00
5 1.00
6 1.00
7 1.00
8 1.00
9 1.00
10 1.00
11 1.00
12 1.00

#	copyright 2023 drugdesign.org
#	Creation time:	2024-01-11T10:58:44Z

@<TRIPOS>MOLECULE
propanol_360.sd
   12    11     0 0 0
SMALL
USER_CHARGES


@<TRIPOS>ATOM
      1 H1            0.000000    0.000000    0.000000 H        1 SUBUNIT    0.2100
      2 C2            2.945200    1.441100   -0.000700 C.3      1 SUBUNIT   -0.0327
      3 C3            1.414900    1.350200    0.000000 C.3      1 SUBUNIT    0.0429
      4 O4            0.950000    0.000000    0.000000 O.3      1 SUBUNIT   -0.3962
      5 C5            3.447000    2.848500    0.342200 C.3      1 SUBUNIT   -0.0632
      6 H6            3.066700    3.579300   -0.398800 H        1 SUBUNIT    0.0231
      7 H7            3.093400    3.143800    1.349800 H        1 SUBUNIT    0.0231
      8 H8            4.554700    2.871100    0.330900 H        1 SUBUNIT    0.0231
      9 H9            3.360400    0.712600    0.723500 H        1 SUBUNIT    0.0287
     10 H10           3.334200    1.140200   -0.993600 H        1 SUBUNIT    0.0287
     11 H11           1.011300    1.881500   -0.884600 H        1 SUBUNIT    0.0563
     12 H12           1.012200    1.881200    0.885100 H        1 SUBUNIT    0.0563
@<TRIPOS>BOND
     1    1    4 1
     2    2    5 1
     3    2    3 1
     4    2    9 1
     5    2   10 1
     6    3    4 1
     7    3   11 1
     8    3   12 1
     9    5    6 1
    10    5    7 1
    11    5    8 1
@<SCITEGIC>ATOM_PROPERTY
Formal Charge
SciTegic.value.StringValue
1 0
2 0
3 0
4 0
5 0
6 0
7 0
8 0
9 0
10 0
11 0
12 0

@<SCITEGIC>ATOM_PROPERTY
pdb_tempFactor
SciTegic.value.DoubleValue
1 0.00
2 0.00
3 0.00
4 0.00
5 0.00
6 0.00
7 0.00
8 0.00
9 0.00
10 0.00
11 0.00
12 0.00

@<SCITEGIC>ATOM_PROPERTY
pdb_occupancy
SciTegic.value.DoubleValue
1 1.00
2 1.00
3 1.00
4 1.00
5 1.00
6 1.00
7 1.00
8 1.00
9 1.00
10 1.00
11 1.00
12 1.00

#	copyright 2023 drugdesign.org
#	Creation time:	2024-01-11T10:58:44Z

@<TRIPOS>MOLECULE
propanol_360.sd
   12    11     0 0 0
SMALL
USER_CHARGES


@<TRIPOS>ATOM
      1 H1            0.000000    0.000000    0.000000 H        1 SUBUNIT    0.2100
      2 C2            2.945200    1.441100   -0.000700 C.3      1 SUBUNIT   -0.0327
      3 C3            1.414900    1.350200    0.000000 C.3      1 SUBUNIT    0.0429
      4 O4            0.950000    0.000000    0.000000 O.3      1 SUBUNIT   -0.3962
      5 C5            3.447300    2.842300    0.366100 C.3      1 SUBUNIT   -0.0632
      6 H6            3.066300    3.585900   -0.361600 H        1 SUBUNIT    0.0231
      7 H7            3.094800    3.120100    1.379100 H        1 SUBUNIT    0.0231
      8 H8            4.555000    2.865100    0.354100 H        1 SUBUNIT    0.0231
      9 H9            3.361200    0.700100    0.710300 H        1 SUBUNIT    0.0287
     10 H10           3.333200    1.157600   -0.999000 H        1 SUBUNIT    0.0287
     11 H11           1.011300    1.881500   -0.884600 H        1 SUBUNIT    0.0563
     12 H12           1.012200    1.881200    0.885100 H        1 SUBUNIT    0.0563
@<TRIPOS>BOND
     1    1    4 1
     2    2    5 1
     3    2    3 1
     4    2    9 1
     5    2   10 1
     6    3    4 1
     7    3   11 1
     8    3   12 1
     9    5    6 1
    10    5    7 1
    11    5    8 1
@<SCITEGIC>ATOM_PROPERTY
Formal Charge
SciTegic.value.StringValue
1 0
2 0
3 0
4 0
5 0
6 0
7 0
8 0
9 0
10 0
11 0
12 0

@<SCITEGIC>ATOM_PROPERTY
pdb_tempFactor
SciTegic.value.DoubleValue
1 0.00
2 0.00
3 0.00
4 0.00
5 0.00
6 0.00
7 0.00
8 0.00
9 0.00
10 0.00
11 0.00
12 0.00

@<SCITEGIC>ATOM_PROPERTY
pdb_occupancy
SciTegic.value.DoubleValue
1 1.00
2 1.00
3 1.00
4 1.00
5 1.00
6 1.00
7 1.00
8 1.00
9 1.00
10 1.00
11 1.00
12 1.00

#	copyright 2023 drugdesign.org
#	Creation time:	2024-01-11T10:58:44Z

@<TRIPOS>MOLECULE
propanol_360.sd
   12    11     0 0 0
SMALL
USER_CHARGES


@<TRIPOS>ATOM
      1 H1            0.000000    0.000000    0.000000 H        1 SUBUNIT    0.2100
      2 C2            2.945200    1.441100   -0.000700 C.3      1 SUBUNIT   -0.0327
      3 C3            1.414900    1.350200    0.000000 C.3      1 SUBUNIT    0.0429
      4 O4            0.950000    0.000000    0.000000 O.3      1 SUBUNIT   -0.3962
      5 C5            3.447700    2.835700    0.389900 C.3      1 SUBUNIT   -0.0632
      6 H6            3.066000    3.591900   -0.324300 H        1 SUBUNIT    0.0231
      7 H7            3.096300    3.095800    1.408000 H        1 SUBUNIT    0.0231
      8 H8            4.555400    2.858700    0.377200 H        1 SUBUNIT    0.0231
      9 H9            3.361900    0.687800    0.696900 H        1 SUBUNIT    0.0287
     10 H10           3.332200    1.175000   -1.004200 H        1 SUBUNIT    0.0287
     11 H11           1.011300    1.881500   -0.884600 H        1 SUBUNIT    0.0563
     12 H12           1.012200    1.881200    0.885100 H        1 SUBUNIT    0.0563
@<TRIPOS>BOND
     1    1    4 1
     2    2    5 1
     3    2    3 1
     4    2    9 1
     5    2   10 1
     6    3    4 1
     7    3   11 1
     8    3   12 1
     9    5    6 1
    10    5    7 1
    11    5    8 1
@<SCITEGIC>ATOM_PROPERTY
Formal Charge
SciTegic.value.StringValue
1 0
2 0
3 0
4 0
5 0
6 0
7 0
8 0
9 0
10 0
11 0
12 0

@<SCITEGIC>ATOM_PROPERTY
pdb_tempFactor
SciTegic.value.DoubleValue
1 0.00
2 0.00
3 0.00
4 0.00
5 0.00
6 0.00
7 0.00
8 0.00
9 0.00
10 0.00
11 0.00
12 0.00

@<SCITEGIC>ATOM_PROPERTY
pdb_occupancy
SciTegic.value.DoubleValue
1 1.00
2 1.00
3 1.00
4 1.00
5 1.00
6 1.00
7 1.00
8 1.00
9 1.00
10 1.00
11 1.00
12 1.00

#	copyright 2023 drugdesign.org
#	Creation time:	2024-01-11T10:58:44Z

@<TRIPOS>MOLECULE
propanol_360.sd
   12    11     0 0 0
SMALL
USER_CHARGES


@<TRIPOS>ATOM
      1 H1            0.000000    0.000000    0.000000 H        1 SUBUNIT    0.2100
      2 C2            2.945200    1.441100   -0.000700 C.3      1 SUBUNIT   -0.0327
      3 C3            1.414900    1.350200    0.000000 C.3      1 SUBUNIT    0.0429
      4 O4            0.950000    0.000000    0.000000 O.3      1 SUBUNIT   -0.3962
      5 C5            3.448200    2.828700    0.413700 C.3      1 SUBUNIT   -0.0632
      6 H6            3.065700    3.597200   -0.286900 H        1 SUBUNIT    0.0231
      7 H7            3.097800    3.071000    1.436500 H        1 SUBUNIT    0.0231
      8 H8            4.555900    2.851900    0.400100 H        1 SUBUNIT    0.0231
      9 H9            3.362600    0.675800    0.683200 H        1 SUBUNIT    0.0287
     10 H10           3.331100    1.192500   -1.009100 H        1 SUBUNIT    0.0287
     11 H11           1.011300    1.881500   -0.884600 H        1 SUBUNIT    0.0563
     12 H12           1.012200    1.881200    0.885100 H        1 SUBUNIT    0.0563
@<TRIPOS>BOND
     1    1    4 1
     2    2    5 1
     3    2    3 1
     4    2    9 1
     5    2   10 1
     6    3    4 1
     7    3   11 1
     8    3   12 1
     9    5    6 1
    10    5    7 1
    11    5    8 1
@<SCITEGIC>ATOM_PROPERTY
Formal Charge
SciTegic.value.StringValue
1 0
2 0
3 0
4 0
5 0
6 0
7 0
8 0
9 0
10 0
11 0
12 0

@<SCITEGIC>ATOM_PROPERTY
pdb_tempFactor
SciTegic.value.DoubleValue
1 0.00
2 0.00
3 0.00
4 0.00
5 0.00
6 0.00
7 0.00
8 0.00
9 0.00
10 0.00
11 0.00
12 0.00

@<SCITEGIC>ATOM_PROPERTY
pdb_occupancy
SciTegic.value.DoubleValue
1 1.00
2 1.00
3 1.00
4 1.00
5 1.00
6 1.00
7 1.00
8 1.00
9 1.00
10 1.00
11 1.00
12 1.00

#	copyright 2023 drugdesign.org
#	Creation time:	2024-01-11T10:58:44Z

@<TRIPOS>MOLECULE
propanol_360.sd
   12    11     0 0 0
SMALL
USER_CHARGES


@<TRIPOS>ATOM
      1 H1            0.000000    0.000000    0.000000 H        1 SUBUNIT    0.2100
      2 C2            2.945200    1.441100   -0.000700 C.3      1 SUBUNIT   -0.0327
      3 C3            1.414900    1.350200    0.000000 C.3      1 SUBUNIT    0.0429
      4 O4            0.950000    0.000000    0.000000 O.3      1 SUBUNIT   -0.3962
      5 C5            3.448600    2.821300    0.437200 C.3      1 SUBUNIT   -0.0632
      6 H6            3.065500    3.601900   -0.249400 H        1 SUBUNIT    0.0231
      7 H7            3.099300    3.045700    1.464500 H        1 SUBUNIT    0.0231
      8 H8            4.556300    2.844700    0.423000 H        1 SUBUNIT    0.0231
      9 H9            3.363300    0.664000    0.669300 H        1 SUBUNIT    0.0287
     10 H10           3.330100    1.210100   -1.013700 H        1 SUBUNIT    0.0287
     11 H11           1.011300    1.881500   -0.884600 H        1 SUBUNIT    0.0563
     12 H12           1.012200    1.881200    0.885100 H        1 SUBUNIT    0.0563
@<TRIPOS>BOND
     1    1    4 1
     2    2    5 1
     3    2    3 1
     4    2    9 1
     5    2   10 1
     6    3    4 1
     7    3   11 1
     8    3   12 1
     9    5    6 1
    10    5    7 1
    11    5    8 1
@<SCITEGIC>ATOM_PROPERTY
Formal Charge
SciTegic.value.StringValue
1 0
2 0
3 0
4 0
5 0
6 0
7 0
8 0
9 0
10 0
11 0
12 0

@<SCITEGIC>ATOM_PROPERTY
pdb_tempFactor
SciTegic.value.DoubleValue
1 0.00
2 0.00
3 0.00
4 0.00
5 0.00
6 0.00
7 0.00
8 0.00
9 0.00
10 0.00
11 0.00
12 0.00

@<SCITEGIC>ATOM_PROPERTY
pdb_occupancy
SciTegic.value.DoubleValue
1 1.00
2 1.00
3 1.00
4 1.00
5 1.00
6 1.00
7 1.00
8 1.00
9 1.00
10 1.00
11 1.00
12 1.00

#	copyright 2023 drugdesign.org
#	Creation time:	2024-01-11T10:58:44Z

@<TRIPOS>MOLECULE
propanol_360.sd
   12    11     0 0 0
SMALL
USER_CHARGES


@<TRIPOS>ATOM
      1 H1            0.000000    0.000000    0.000000 H        1 SUBUNIT    0.2100
      2 C2            2.945200    1.441100   -0.000700 C.3      1 SUBUNIT   -0.0327
      3 C3            1.414900    1.350200    0.000000 C.3      1 SUBUNIT    0.0429
      4 O4            0.950000    0.000000    0.000000 O.3      1 SUBUNIT   -0.3962
      5 C5            3.449100    2.813400    0.460700 C.3      1 SUBUNIT   -0.0632
      6 H6            3.065200    3.605900   -0.211900 H        1 SUBUNIT    0.0231
      7 H7            3.100800    3.019900    1.492100 H        1 SUBUNIT    0.0231
      8 H8            4.556700    2.837100    0.445700 H        1 SUBUNIT    0.0231
      9 H9            3.364000    0.652400    0.655300 H        1 SUBUNIT    0.0287
     10 H10           3.329000    1.227800   -1.018000 H        1 SUBUNIT    0.0287
     11 H11           1.011300    1.881500   -0.884600 H        1 SUBUNIT    0.0563
     12 H12           1.012200    1.881200    0.885100 H        1 SUBUNIT    0.0563
@<TRIPOS>BOND
     1    1    4 1
     2    2    5 1
     3    2    3 1
     4    2    9 1
     5    2   10 1
     6    3    4 1
     7    3   11 1
     8    3   12 1
     9    5    6 1
    10    5    7 1
    11    5    8 1
@<SCITEGIC>ATOM_PROPERTY
Formal Charge
SciTegic.value.StringValue
1 0
2 0
3 0
4 0
5 0
6 0
7 0
8 0
9 0
10 0
11 0
12 0

@<SCITEGIC>ATOM_PROPERTY
pdb_tempFactor
SciTegic.value.DoubleValue
1 0.00
2 0.00
3 0.00
4 0.00
5 0.00
6 0.00
7 0.00
8 0.00
9 0.00
10 0.00
11 0.00
12 0.00

@<SCITEGIC>ATOM_PROPERTY
pdb_occupancy
SciTegic.value.DoubleValue
1 1.00
2 1.00
3 1.00
4 1.00
5 1.00
6 1.00
7 1.00
8 1.00
9 1.00
10 1.00
11 1.00
12 1.00

#	copyright 2023 drugdesign.org
#	Creation time:	2024-01-11T10:58:44Z

@<TRIPOS>MOLECULE
propanol_360.sd
   12    11     0 0 0
SMALL
USER_CHARGES


@<TRIPOS>ATOM
      1 H1            0.000000    0.000000    0.000000 H        1 SUBUNIT    0.2100
      2 C2            2.945200    1.441100   -0.000700 C.3      1 SUBUNIT   -0.0327
      3 C3            1.414900    1.350200    0.000000 C.3      1 SUBUNIT    0.0429
      4 O4            0.950000    0.000000    0.000000 O.3      1 SUBUNIT   -0.3962
      5 C5            3.449600    2.805200    0.484000 C.3      1 SUBUNIT   -0.0632
      6 H6            3.065000    3.609200   -0.174300 H        1 SUBUNIT    0.0231
      7 H7            3.102400    2.993700    1.519200 H        1 SUBUNIT    0.0231
      8 H8            4.557200    2.829100    0.468300 H        1 SUBUNIT    0.0231
      9 H9            3.364600    0.641100    0.641000 H        1 SUBUNIT    0.0287
     10 H10           3.328000    1.245600   -1.021900 H        1 SUBUNIT    0.0287
     11 H11           1.011300    1.881500   -0.884600 H        1 SUBUNIT    0.0563
     12 H12           1.012200    1.881200    0.885100 H        1 SUBUNIT    0.0563
@<TRIPOS>BOND
     1    1    4 1
     2    2    5 1
     3    2    3 1
     4    2    9 1
     5    2   10 1
     6    3    4 1
     7    3   11 1
     8    3   12 1
     9    5    6 1
    10    5    7 1
    11    5    8 1
@<SCITEGIC>ATOM_PROPERTY
Formal Charge
SciTegic.value.StringValue
1 0
2 0
3 0
4 0
5 0
6 0
7 0
8 0
9 0
10 0
11 0
12 0

@<SCITEGIC>ATOM_PROPERTY
pdb_tempFactor
SciTegic.value.DoubleValue
1 0.00
2 0.00
3 0.00
4 0.00
5 0.00
6 0.00
7 0.00
8 0.00
9 0.00
10 0.00
11 0.00
12 0.00

@<SCITEGIC>ATOM_PROPERTY
pdb_occupancy
SciTegic.value.DoubleValue
1 1.00
2 1.00
3 1.00
4 1.00
5 1.00
6 1.00
7 1.00
8 1.00
9 1.00
10 1.00
11 1.00
12 1.00

#	copyright 2023 drugdesign.org
#	Creation time:	2024-01-11T10:58:44Z

@<TRIPOS>MOLECULE
propanol_360.sd
   12    11     0 0 0
SMALL
USER_CHARGES


@<TRIPOS>ATOM
      1 H1            0.000000    0.000000    0.000000 H        1 SUBUNIT    0.2100
      2 C2            2.945200    1.441100   -0.000700 C.3      1 SUBUNIT   -0.0327
      3 C3            1.414900    1.350200    0.000000 C.3      1 SUBUNIT    0.0429
      4 O4            0.950000    0.000000    0.000000 O.3      1 SUBUNIT   -0.3962
      5 C5            3.450100    2.796500    0.507200 C.3      1 SUBUNIT   -0.0632
      6 H6            3.064900    3.611900   -0.136600 H        1 SUBUNIT    0.0231
      7 H7            3.104000    2.967000    1.545800 H        1 SUBUNIT    0.0231
      8 H8            4.557700    2.820700    0.490700 H        1 SUBUNIT    0.0231
      9 H9            3.365300    0.630100    0.626500 H        1 SUBUNIT    0.0287
     10 H10           3.326900    1.263400   -1.025600 H        1 SUBUNIT    0.0287
     11 H11           1.011300    1.881500   -0.884600 H        1 SUBUNIT    0.0563
     12 H12           1.012200    1.881200    0.885100 H        1 SUBUNIT    0.0563
@<TRIPOS>BOND
     1    1    4 1
     2    2    5 1
     3    2    3 1
     4    2    9 1
     5    2   10 1
     6    3    4 1
     7    3   11 1
     8    3   12 1
     9    5    6 1
    10    5    7 1
    11    5    8 1
@<SCITEGIC>ATOM_PROPERTY
Formal Charge
SciTegic.value.StringValue
1 0
2 0
3 0
4 0
5 0
6 0
7 0
8 0
9 0
10 0
11 0
12 0

@<SCITEGIC>ATOM_PROPERTY
pdb_tempFactor
SciTegic.value.DoubleValue
1 0.00
2 0.00
3 0.00
4 0.00
5 0.00
6 0.00
7 0.00
8 0.00
9 0.00
10 0.00
11 0.00
12 0.00

@<SCITEGIC>ATOM_PROPERTY
pdb_occupancy
SciTegic.value.DoubleValue
1 1.00
2 1.00
3 1.00
4 1.00
5 1.00
6 1.00
7 1.00
8 1.00
9 1.00
10 1.00
11 1.00
12 1.00

#	copyright 2023 drugdesign.org
#	Creation time:	2024-01-11T10:58:44Z

@<TRIPOS>MOLECULE
propanol_360.sd
   12    11     0 0 0
SMALL
USER_CHARGES


@<TRIPOS>ATOM
      1 H1            0.000000    0.000000    0.000000 H        1 SUBUNIT    0.2100
      2 C2            2.945200    1.441100   -0.000700 C.3      1 SUBUNIT   -0.0327
      3 C3            1.414900    1.350200    0.000000 C.3      1 SUBUNIT    0.0429
      4 O4            0.950000    0.000000    0.000000 O.3      1 SUBUNIT   -0.3962
      5 C5            3.450700    2.787500    0.530200 C.3      1 SUBUNIT   -0.0632
      6 H6            3.064800    3.614000   -0.098900 H        1 SUBUNIT    0.0231
      7 H7            3.105600    2.939800    1.572000 H        1 SUBUNIT    0.0231
      8 H8            4.558300    2.812000    0.513000 H        1 SUBUNIT    0.0231
      9 H9            3.365900    0.619300    0.611900 H        1 SUBUNIT    0.0287
     10 H10           3.325900    1.281300   -1.028900 H        1 SUBUNIT    0.0287
     11 H11           1.011300    1.881500   -0.884600 H        1 SUBUNIT    0.0563
     12 H12           1.012200    1.881200    0.885100 H        1 SUBUNIT    0.0563
@<TRIPOS>BOND
     1    1    4 1
     2    2    5 1
     3    2    3 1
     4    2    9 1
     5    2   10 1
     6    3    4 1
     7    3   11 1
     8    3   12 1
     9    5    6 1
    10    5    7 1
    11    5    8 1
@<SCITEGIC>ATOM_PROPERTY
Formal Charge
SciTegic.value.StringValue
1 0
2 0
3 0
4 0
5 0
6 0
7 0
8 0
9 0
10 0
11 0
12 0

@<SCITEGIC>ATOM_PROPERTY
pdb_tempFactor
SciTegic.value.DoubleValue
1 0.00
2 0.00
3 0.00
4 0.00
5 0.00
6 0.00
7 0.00
8 0.00
9 0.00
10 0.00
11 0.00
12 0.00

@<SCITEGIC>ATOM_PROPERTY
pdb_occupancy
SciTegic.value.DoubleValue
1 1.00
2 1.00
3 1.00
4 1.00
5 1.00
6 1.00
7 1.00
8 1.00
9 1.00
10 1.00
11 1.00
12 1.00

#	copyright 2023 drugdesign.org
#	Creation time:	2024-01-11T10:58:44Z

@<TRIPOS>MOLECULE
propanol_360.sd
   12    11     0 0 0
SMALL
USER_CHARGES


@<TRIPOS>ATOM
      1 H1            0.000000    0.000000    0.000000 H        1 SUBUNIT    0.2100
      2 C2            2.945200    1.441100   -0.000700 C.3      1 SUBUNIT   -0.0327
      3 C3            1.414900    1.350200    0.000000 C.3      1 SUBUNIT    0.0429
      4 O4            0.950000    0.000000    0.000000 O.3      1 SUBUNIT   -0.3962
      5 C5            3.451200    2.778000    0.553000 C.3      1 SUBUNIT   -0.0632
      6 H6            3.064700    3.615300   -0.061100 H        1 SUBUNIT    0.0231
      7 H7            3.107300    2.912200    1.597700 H        1 SUBUNIT    0.0231
      8 H8            4.558800    2.802800    0.535200 H        1 SUBUNIT    0.0231
      9 H9            3.366500    0.608700    0.597000 H        1 SUBUNIT    0.0287
     10 H10           3.324800    1.299200   -1.031900 H        1 SUBUNIT    0.0287
     11 H11           1.011300    1.881500   -0.884600 H        1 SUBUNIT    0.0563
     12 H12           1.012200    1.881200    0.885100 H        1 SUBUNIT    0.0563
@<TRIPOS>BOND
     1    1    4 1
     2    2    5 1
     3    2    3 1
     4    2    9 1
     5    2   10 1
     6    3    4 1
     7    3   11 1
     8    3   12 1
     9    5    6 1
    10    5    7 1
    11    5    8 1
@<SCITEGIC>ATOM_PROPERTY
Formal Charge
SciTegic.value.StringValue
1 0
2 0
3 0
4 0
5 0
6 0
7 0
8 0
9 0
10 0
11 0
12 0

@<SCITEGIC>ATOM_PROPERTY
pdb_tempFactor
SciTegic.value.DoubleValue
1 0.00
2 0.00
3 0.00
4 0.00
5 0.00
6 0.00
7 0.00
8 0.00
9 0.00
10 0.00
11 0.00
12 0.00

@<SCITEGIC>ATOM_PROPERTY
pdb_occupancy
SciTegic.value.DoubleValue
1 1.00
2 1.00
3 1.00
4 1.00
5 1.00
6 1.00
7 1.00
8 1.00
9 1.00
10 1.00
11 1.00
12 1.00

#	copyright 2023 drugdesign.org
#	Creation time:	2024-01-11T10:58:44Z

@<TRIPOS>MOLECULE
propanol_360.sd
   12    11     0 0 0
SMALL
USER_CHARGES


@<TRIPOS>ATOM
      1 H1            0.000000    0.000000    0.000000 H        1 SUBUNIT    0.2100
      2 C2            2.945200    1.441100   -0.000700 C.3      1 SUBUNIT   -0.0327
      3 C3            1.414900    1.350200    0.000000 C.3      1 SUBUNIT    0.0429
      4 O4            0.950000    0.000000    0.000000 O.3      1 SUBUNIT   -0.3962
      5 C5            3.451800    2.768200    0.575700 C.3      1 SUBUNIT   -0.0632
      6 H6            3.064700    3.616100   -0.023400 H        1 SUBUNIT    0.0231
      7 H7            3.108900    2.884100    1.622900 H        1 SUBUNIT    0.0231
      8 H8            4.559400    2.793300    0.557100 H        1 SUBUNIT    0.0231
      9 H9            3.367200    0.598400    0.582000 H        1 SUBUNIT    0.0287
     10 H10           3.323700    1.317200   -1.034600 H        1 SUBUNIT    0.0287
     11 H11           1.011300    1.881500   -0.884600 H        1 SUBUNIT    0.0563
     12 H12           1.012200    1.881200    0.885100 H        1 SUBUNIT    0.0563
@<TRIPOS>BOND
     1    1    4 1
     2    2    5 1
     3    2    3 1
     4    2    9 1
     5    2   10 1
     6    3    4 1
     7    3   11 1
     8    3   12 1
     9    5    6 1
    10    5    7 1
    11    5    8 1
@<SCITEGIC>ATOM_PROPERTY
Formal Charge
SciTegic.value.StringValue
1 0
2 0
3 0
4 0
5 0
6 0
7 0
8 0
9 0
10 0
11 0
12 0

@<SCITEGIC>ATOM_PROPERTY
pdb_tempFactor
SciTegic.value.DoubleValue
1 0.00
2 0.00
3 0.00
4 0.00
5 0.00
6 0.00
7 0.00
8 0.00
9 0.00
10 0.00
11 0.00
12 0.00

@<SCITEGIC>ATOM_PROPERTY
pdb_occupancy
SciTegic.value.DoubleValue
1 1.00
2 1.00
3 1.00
4 1.00
5 1.00
6 1.00
7 1.00
8 1.00
9 1.00
10 1.00
11 1.00
12 1.00

#	copyright 2023 drugdesign.org
#	Creation time:	2024-01-11T10:58:44Z

@<TRIPOS>MOLECULE
propanol_360.sd
   12    11     0 0 0
SMALL
USER_CHARGES


@<TRIPOS>ATOM
      1 H1            0.000000    0.000000    0.000000 H        1 SUBUNIT    0.2100
      2 C2            2.945200    1.441100   -0.000700 C.3      1 SUBUNIT   -0.0327
      3 C3            1.414900    1.350200    0.000000 C.3      1 SUBUNIT    0.0429
      4 O4            0.950000    0.000000    0.000000 O.3      1 SUBUNIT   -0.3962
      5 C5            3.452500    2.757900    0.598200 C.3      1 SUBUNIT   -0.0632
      6 H6            3.064700    3.616100    0.014400 H        1 SUBUNIT    0.0231
      7 H7            3.110600    2.855600    1.647700 H        1 SUBUNIT    0.0231
      8 H8            4.560000    2.783400    0.578900 H        1 SUBUNIT    0.0231
      9 H9            3.367700    0.588400    0.566800 H        1 SUBUNIT    0.0287
     10 H10           3.322600    1.335200   -1.037000 H        1 SUBUNIT    0.0287
     11 H11           1.011300    1.881500   -0.884600 H        1 SUBUNIT    0.0563
     12 H12           1.012200    1.881200    0.885100 H        1 SUBUNIT    0.0563
@<TRIPOS>BOND
     1    1    4 1
     2    2    5 1
     3    2    3 1
     4    2    9 1
     5    2   10 1
     6    3    4 1
     7    3   11 1
     8    3   12 1
     9    5    6 1
    10    5    7 1
    11    5    8 1
@<SCITEGIC>ATOM_PROPERTY
Formal Charge
SciTegic.value.StringValue
1 0
2 0
3 0
4 0
5 0
6 0
7 0
8 0
9 0
10 0
11 0
12 0

@<SCITEGIC>ATOM_PROPERTY
pdb_tempFactor
SciTegic.value.DoubleValue
1 0.00
2 0.00
3 0.00
4 0.00
5 0.00
6 0.00
7 0.00
8 0.00
9 0.00
10 0.00
11 0.00
12 0.00

@<SCITEGIC>ATOM_PROPERTY
pdb_occupancy
SciTegic.value.DoubleValue
1 1.00
2 1.00
3 1.00
4 1.00
5 1.00
6 1.00
7 1.00
8 1.00
9 1.00
10 1.00
11 1.00
12 1.00

#	copyright 2023 drugdesign.org
#	Creation time:	2024-01-11T10:58:44Z

@<TRIPOS>MOLECULE
propanol_360.sd
   12    11     0 0 0
SMALL
USER_CHARGES


@<TRIPOS>ATOM
      1 H1            0.000000    0.000000    0.000000 H        1 SUBUNIT    0.2100
      2 C2            2.945200    1.441100   -0.000700 C.3      1 SUBUNIT   -0.0327
      3 C3            1.414900    1.350200    0.000000 C.3      1 SUBUNIT    0.0429
      4 O4            0.950000    0.000000    0.000000 O.3      1 SUBUNIT   -0.3962
      5 C5            3.453100    2.747300    0.620600 C.3      1 SUBUNIT   -0.0632
      6 H6            3.064800    3.615500    0.052200 H        1 SUBUNIT    0.0231
      7 H7            3.112400    2.826600    1.671900 H        1 SUBUNIT    0.0231
      8 H8            4.560600    2.773100    0.600600 H        1 SUBUNIT    0.0231
      9 H9            3.368300    0.578600    0.551400 H        1 SUBUNIT    0.0287
     10 H10           3.321600    1.353300   -1.039100 H        1 SUBUNIT    0.0287
     11 H11           1.011300    1.881500   -0.884600 H        1 SUBUNIT    0.0563
     12 H12           1.012200    1.881200    0.885100 H        1 SUBUNIT    0.0563
@<TRIPOS>BOND
     1    1    4 1
     2    2    5 1
     3    2    3 1
     4    2    9 1
     5    2   10 1
     6    3    4 1
     7    3   11 1
     8    3   12 1
     9    5    6 1
    10    5    7 1
    11    5    8 1
@<SCITEGIC>ATOM_PROPERTY
Formal Charge
SciTegic.value.StringValue
1 0
2 0
3 0
4 0
5 0
6 0
7 0
8 0
9 0
10 0
11 0
12 0

@<SCITEGIC>ATOM_PROPERTY
pdb_tempFactor
SciTegic.value.DoubleValue
1 0.00
2 0.00
3 0.00
4 0.00
5 0.00
6 0.00
7 0.00
8 0.00
9 0.00
10 0.00
11 0.00
12 0.00

@<SCITEGIC>ATOM_PROPERTY
pdb_occupancy
SciTegic.value.DoubleValue
1 1.00
2 1.00
3 1.00
4 1.00
5 1.00
6 1.00
7 1.00
8 1.00
9 1.00
10 1.00
11 1.00
12 1.00

#	copyright 2023 drugdesign.org
#	Creation time:	2024-01-11T10:58:44Z

@<TRIPOS>MOLECULE
propanol_360.sd
   12    11     0 0 0
SMALL
USER_CHARGES


@<TRIPOS>ATOM
      1 H1            0.000000    0.000000    0.000000 H        1 SUBUNIT    0.2100
      2 C2            2.945200    1.441100   -0.000700 C.3      1 SUBUNIT   -0.0327
      3 C3            1.414900    1.350200    0.000000 C.3      1 SUBUNIT    0.0429
      4 O4            0.950000    0.000000    0.000000 O.3      1 SUBUNIT   -0.3962
      5 C5            3.453800    2.736300    0.642700 C.3      1 SUBUNIT   -0.0632
      6 H6            3.064900    3.614300    0.089900 H        1 SUBUNIT    0.0231
      7 H7            3.114100    2.797300    1.695600 H        1 SUBUNIT    0.0231
      8 H8            4.561300    2.762400    0.622000 H        1 SUBUNIT    0.0231
      9 H9            3.368900    0.569200    0.535800 H        1 SUBUNIT    0.0287
     10 H10           3.320500    1.371400   -1.040900 H        1 SUBUNIT    0.0287
     11 H11           1.011300    1.881500   -0.884600 H        1 SUBUNIT    0.0563
     12 H12           1.012200    1.881200    0.885100 H        1 SUBUNIT    0.0563
@<TRIPOS>BOND
     1    1    4 1
     2    2    5 1
     3    2    3 1
     4    2    9 1
     5    2   10 1
     6    3    4 1
     7    3   11 1
     8    3   12 1
     9    5    6 1
    10    5    7 1
    11    5    8 1
@<SCITEGIC>ATOM_PROPERTY
Formal Charge
SciTegic.value.StringValue
1 0
2 0
3 0
4 0
5 0
6 0
7 0
8 0
9 0
10 0
11 0
12 0

@<SCITEGIC>ATOM_PROPERTY
pdb_tempFactor
SciTegic.value.DoubleValue
1 0.00
2 0.00
3 0.00
4 0.00
5 0.00
6 0.00
7 0.00
8 0.00
9 0.00
10 0.00
11 0.00
12 0.00

@<SCITEGIC>ATOM_PROPERTY
pdb_occupancy
SciTegic.value.DoubleValue
1 1.00
2 1.00
3 1.00
4 1.00
5 1.00
6 1.00
7 1.00
8 1.00
9 1.00
10 1.00
11 1.00
12 1.00

#	copyright 2023 drugdesign.org
#	Creation time:	2024-01-11T10:58:44Z

@<TRIPOS>MOLECULE
propanol_360.sd
   12    11     0 0 0
SMALL
USER_CHARGES


@<TRIPOS>ATOM
      1 H1            0.000000    0.000000    0.000000 H        1 SUBUNIT    0.2100
      2 C2            2.945200    1.441100   -0.000700 C.3      1 SUBUNIT   -0.0327
      3 C3            1.414900    1.350200    0.000000 C.3      1 SUBUNIT    0.0429
      4 O4            0.950000    0.000000    0.000000 O.3      1 SUBUNIT   -0.3962
      5 C5            3.454500    2.724900    0.664600 C.3      1 SUBUNIT   -0.0632
      6 H6            3.065000    3.612400    0.127700 H        1 SUBUNIT    0.0231
      7 H7            3.115900    2.767500    1.718800 H        1 SUBUNIT    0.0231
      8 H8            4.561900    2.751300    0.643300 H        1 SUBUNIT    0.0231
      9 H9            3.369400    0.559900    0.520100 H        1 SUBUNIT    0.0287
     10 H10           3.319400    1.389500   -1.042300 H        1 SUBUNIT    0.0287
     11 H11           1.011300    1.881500   -0.884600 H        1 SUBUNIT    0.0563
     12 H12           1.012200    1.881200    0.885100 H        1 SUBUNIT    0.0563
@<TRIPOS>BOND
     1    1    4 1
     2    2    5 1
     3    2    3 1
     4    2    9 1
     5    2   10 1
     6    3    4 1
     7    3   11 1
     8    3   12 1
     9    5    6 1
    10    5    7 1
    11    5    8 1
@<SCITEGIC>ATOM_PROPERTY
Formal Charge
SciTegic.value.StringValue
1 0
2 0
3 0
4 0
5 0
6 0
7 0
8 0
9 0
10 0
11 0
12 0

@<SCITEGIC>ATOM_PROPERTY
pdb_tempFactor
SciTegic.value.DoubleValue
1 0.00
2 0.00
3 0.00
4 0.00
5 0.00
6 0.00
7 0.00
8 0.00
9 0.00
10 0.00
11 0.00
12 0.00

@<SCITEGIC>ATOM_PROPERTY
pdb_occupancy
SciTegic.value.DoubleValue
1 1.00
2 1.00
3 1.00
4 1.00
5 1.00
6 1.00
7 1.00
8 1.00
9 1.00
10 1.00
11 1.00
12 1.00

#	copyright 2023 drugdesign.org
#	Creation time:	2024-01-11T10:58:44Z

@<TRIPOS>MOLECULE
propanol_360.sd
   12    11     0 0 0
SMALL
USER_CHARGES


@<TRIPOS>ATOM
      1 H1            0.000000    0.000000    0.000000 H        1 SUBUNIT    0.2100
      2 C2            2.945200    1.441100   -0.000700 C.3      1 SUBUNIT   -0.0327
      3 C3            1.414900    1.350200    0.000000 C.3      1 SUBUNIT    0.0429
      4 O4            0.950000    0.000000    0.000000 O.3      1 SUBUNIT   -0.3962
      5 C5            3.455200    2.713100    0.686400 C.3      1 SUBUNIT   -0.0632
      6 H6            3.065200    3.609800    0.165300 H        1 SUBUNIT    0.0231
      7 H7            3.117700    2.737400    1.741500 H        1 SUBUNIT    0.0231
      8 H8            4.562600    2.739900    0.664300 H        1 SUBUNIT    0.0231
      9 H9            3.369900    0.551000    0.504300 H        1 SUBUNIT    0.0287
     10 H10           3.318300    1.407700   -1.043400 H        1 SUBUNIT    0.0287
     11 H11           1.011300    1.881500   -0.884600 H        1 SUBUNIT    0.0563
     12 H12           1.012200    1.881200    0.885100 H        1 SUBUNIT    0.0563
@<TRIPOS>BOND
     1    1    4 1
     2    2    5 1
     3    2    3 1
     4    2    9 1
     5    2   10 1
     6    3    4 1
     7    3   11 1
     8    3   12 1
     9    5    6 1
    10    5    7 1
    11    5    8 1
@<SCITEGIC>ATOM_PROPERTY
Formal Charge
SciTegic.value.StringValue
1 0
2 0
3 0
4 0
5 0
6 0
7 0
8 0
9 0
10 0
11 0
12 0

@<SCITEGIC>ATOM_PROPERTY
pdb_tempFactor
SciTegic.value.DoubleValue
1 0.00
2 0.00
3 0.00
4 0.00
5 0.00
6 0.00
7 0.00
8 0.00
9 0.00
10 0.00
11 0.00
12 0.00

@<SCITEGIC>ATOM_PROPERTY
pdb_occupancy
SciTegic.value.DoubleValue
1 1.00
2 1.00
3 1.00
4 1.00
5 1.00
6 1.00
7 1.00
8 1.00
9 1.00
10 1.00
11 1.00
12 1.00

#	copyright 2023 drugdesign.org
#	Creation time:	2024-01-11T10:58:44Z

@<TRIPOS>MOLECULE
propanol_360.sd
   12    11     0 0 0
SMALL
USER_CHARGES


@<TRIPOS>ATOM
      1 H1            0.000000    0.000000    0.000000 H        1 SUBUNIT    0.2100
      2 C2            2.945200    1.441100   -0.000700 C.3      1 SUBUNIT   -0.0327
      3 C3            1.414900    1.350200    0.000000 C.3      1 SUBUNIT    0.0429
      4 O4            0.950000    0.000000    0.000000 O.3      1 SUBUNIT   -0.3962
      5 C5            3.455900    2.700900    0.707900 C.3      1 SUBUNIT   -0.0632
      6 H6            3.065400    3.606600    0.203000 H        1 SUBUNIT    0.0231
      7 H7            3.119500    2.706800    1.763600 H        1 SUBUNIT    0.0231
      8 H8            4.563300    2.728100    0.685200 H        1 SUBUNIT    0.0231
      9 H9            3.370400    0.542300    0.488200 H        1 SUBUNIT    0.0287
     10 H10           3.317300    1.425900   -1.044300 H        1 SUBUNIT    0.0287
     11 H11           1.011300    1.881500   -0.884600 H        1 SUBUNIT    0.0563
     12 H12           1.012200    1.881200    0.885100 H        1 SUBUNIT    0.0563
@<TRIPOS>BOND
     1    1    4 1
     2    2    5 1
     3    2    3 1
     4    2    9 1
     5    2   10 1
     6    3    4 1
     7    3   11 1
     8    3   12 1
     9    5    6 1
    10    5    7 1
    11    5    8 1
@<SCITEGIC>ATOM_PROPERTY
Formal Charge
SciTegic.value.StringValue
1 0
2 0
3 0
4 0
5 0
6 0
7 0
8 0
9 0
10 0
11 0
12 0

@<SCITEGIC>ATOM_PROPERTY
pdb_tempFactor
SciTegic.value.DoubleValue
1 0.00
2 0.00
3 0.00
4 0.00
5 0.00
6 0.00
7 0.00
8 0.00
9 0.00
10 0.00
11 0.00
12 0.00

@<SCITEGIC>ATOM_PROPERTY
pdb_occupancy
SciTegic.value.DoubleValue
1 1.00
2 1.00
3 1.00
4 1.00
5 1.00
6 1.00
7 1.00
8 1.00
9 1.00
10 1.00
11 1.00
12 1.00

#	copyright 2023 drugdesign.org
#	Creation time:	2024-01-11T10:58:44Z

@<TRIPOS>MOLECULE
propanol_360.sd
   12    11     0 0 0
SMALL
USER_CHARGES


@<TRIPOS>ATOM
      1 H1            0.000000    0.000000    0.000000 H        1 SUBUNIT    0.2100
      2 C2            2.945200    1.441100   -0.000700 C.3      1 SUBUNIT   -0.0327
      3 C3            1.414900    1.350200    0.000000 C.3      1 SUBUNIT    0.0429
      4 O4            0.950000    0.000000    0.000000 O.3      1 SUBUNIT   -0.3962
      5 C5            3.456700    2.688400    0.729200 C.3      1 SUBUNIT   -0.0632
      6 H6            3.065600    3.602700    0.240500 H        1 SUBUNIT    0.0231
      7 H7            3.121400    2.675900    1.785200 H        1 SUBUNIT    0.0231
      8 H8            4.564100    2.716000    0.705800 H        1 SUBUNIT    0.0231
      9 H9            3.370900    0.534000    0.472100 H        1 SUBUNIT    0.0287
     10 H10           3.316200    1.444100   -1.044700 H        1 SUBUNIT    0.0287
     11 H11           1.011300    1.881500   -0.884600 H        1 SUBUNIT    0.0563
     12 H12           1.012200    1.881200    0.885100 H        1 SUBUNIT    0.0563
@<TRIPOS>BOND
     1    1    4 1
     2    2    5 1
     3    2    3 1
     4    2    9 1
     5    2   10 1
     6    3    4 1
     7    3   11 1
     8    3   12 1
     9    5    6 1
    10    5    7 1
    11    5    8 1
@<SCITEGIC>ATOM_PROPERTY
Formal Charge
SciTegic.value.StringValue
1 0
2 0
3 0
4 0
5 0
6 0
7 0
8 0
9 0
10 0
11 0
12 0

@<SCITEGIC>ATOM_PROPERTY
pdb_tempFactor
SciTegic.value.DoubleValue
1 0.00
2 0.00
3 0.00
4 0.00
5 0.00
6 0.00
7 0.00
8 0.00
9 0.00
10 0.00
11 0.00
12 0.00

@<SCITEGIC>ATOM_PROPERTY
pdb_occupancy
SciTegic.value.DoubleValue
1 1.00
2 1.00
3 1.00
4 1.00
5 1.00
6 1.00
7 1.00
8 1.00
9 1.00
10 1.00
11 1.00
12 1.00

#	copyright 2023 drugdesign.org
#	Creation time:	2024-01-11T10:58:44Z

@<TRIPOS>MOLECULE
propanol_360.sd
   12    11     0 0 0
SMALL
USER_CHARGES


@<TRIPOS>ATOM
      1 H1            0.000000    0.000000    0.000000 H        1 SUBUNIT    0.2100
      2 C2            2.945200    1.441100   -0.000700 C.3      1 SUBUNIT   -0.0327
      3 C3            1.414900    1.350200    0.000000 C.3      1 SUBUNIT    0.0429
      4 O4            0.950000    0.000000    0.000000 O.3      1 SUBUNIT   -0.3962
      5 C5            3.457400    2.675500    0.750300 C.3      1 SUBUNIT   -0.0632
      6 H6            3.065900    3.598200    0.278000 H        1 SUBUNIT    0.0231
      7 H7            3.123300    2.644600    1.806300 H        1 SUBUNIT    0.0231
      8 H8            4.564800    2.703500    0.726200 H        1 SUBUNIT    0.0231
      9 H9            3.371400    0.525900    0.455800 H        1 SUBUNIT    0.0287
     10 H10           3.315100    1.462200   -1.044900 H        1 SUBUNIT    0.0287
     11 H11           1.011300    1.881500   -0.884600 H        1 SUBUNIT    0.0563
     12 H12           1.012200    1.881200    0.885100 H        1 SUBUNIT    0.0563
@<TRIPOS>BOND
     1    1    4 1
     2    2    5 1
     3    2    3 1
     4    2    9 1
     5    2   10 1
     6    3    4 1
     7    3   11 1
     8    3   12 1
     9    5    6 1
    10    5    7 1
    11    5    8 1
@<SCITEGIC>ATOM_PROPERTY
Formal Charge
SciTegic.value.StringValue
1 0
2 0
3 0
4 0
5 0
6 0
7 0
8 0
9 0
10 0
11 0
12 0

@<SCITEGIC>ATOM_PROPERTY
pdb_tempFactor
SciTegic.value.DoubleValue
1 0.00
2 0.00
3 0.00
4 0.00
5 0.00
6 0.00
7 0.00
8 0.00
9 0.00
10 0.00
11 0.00
12 0.00

@<SCITEGIC>ATOM_PROPERTY
pdb_occupancy
SciTegic.value.DoubleValue
1 1.00
2 1.00
3 1.00
4 1.00
5 1.00
6 1.00
7 1.00
8 1.00
9 1.00
10 1.00
11 1.00
12 1.00

#	copyright 2023 drugdesign.org
#	Creation time:	2024-01-11T10:58:44Z

@<TRIPOS>MOLECULE
propanol_360.sd
   12    11     0 0 0
SMALL
USER_CHARGES


@<TRIPOS>ATOM
      1 H1            0.000000    0.000000    0.000000 H        1 SUBUNIT    0.2100
      2 C2            2.945200    1.441100   -0.000700 C.3      1 SUBUNIT   -0.0327
      3 C3            1.414900    1.350200    0.000000 C.3      1 SUBUNIT    0.0429
      4 O4            0.950000    0.000000    0.000000 O.3      1 SUBUNIT   -0.3962
      5 C5            3.458200    2.662200    0.771200 C.3      1 SUBUNIT   -0.0632
      6 H6            3.066200    3.593000    0.315500 H        1 SUBUNIT    0.0231
      7 H7            3.125100    2.612900    1.826800 H        1 SUBUNIT    0.0231
      8 H8            4.565600    2.690600    0.746400 H        1 SUBUNIT    0.0231
      9 H9            3.371900    0.518100    0.439300 H        1 SUBUNIT    0.0287
     10 H10           3.314000    1.480400   -1.044800 H        1 SUBUNIT    0.0287
     11 H11           1.011300    1.881500   -0.884600 H        1 SUBUNIT    0.0563
     12 H12           1.012200    1.881200    0.885100 H        1 SUBUNIT    0.0563
@<TRIPOS>BOND
     1    1    4 1
     2    2    5 1
     3    2    3 1
     4    2    9 1
     5    2   10 1
     6    3    4 1
     7    3   11 1
     8    3   12 1
     9    5    6 1
    10    5    7 1
    11    5    8 1
@<SCITEGIC>ATOM_PROPERTY
Formal Charge
SciTegic.value.StringValue
1 0
2 0
3 0
4 0
5 0
6 0
7 0
8 0
9 0
10 0
11 0
12 0

@<SCITEGIC>ATOM_PROPERTY
pdb_tempFactor
SciTegic.value.DoubleValue
1 0.00
2 0.00
3 0.00
4 0.00
5 0.00
6 0.00
7 0.00
8 0.00
9 0.00
10 0.00
11 0.00
12 0.00

@<SCITEGIC>ATOM_PROPERTY
pdb_occupancy
SciTegic.value.DoubleValue
1 1.00
2 1.00
3 1.00
4 1.00
5 1.00
6 1.00
7 1.00
8 1.00
9 1.00
10 1.00
11 1.00
12 1.00

#	copyright 2023 drugdesign.org
#	Creation time:	2024-01-11T10:58:44Z

@<TRIPOS>MOLECULE
propanol_360.sd
   12    11     0 0 0
SMALL
USER_CHARGES


@<TRIPOS>ATOM
      1 H1            0.000000    0.000000    0.000000 H        1 SUBUNIT    0.2100
      2 C2            2.945200    1.441100   -0.000700 C.3      1 SUBUNIT   -0.0327
      3 C3            1.414900    1.350200    0.000000 C.3      1 SUBUNIT    0.0429
      4 O4            0.950000    0.000000    0.000000 O.3      1 SUBUNIT   -0.3962
      5 C5            3.459000    2.648600    0.791800 C.3      1 SUBUNIT   -0.0632
      6 H6            3.066600    3.587200    0.352800 H        1 SUBUNIT    0.0231
      7 H7            3.127100    2.580900    1.846700 H        1 SUBUNIT    0.0231
      8 H8            4.566400    2.677400    0.766400 H        1 SUBUNIT    0.0231
      9 H9            3.372300    0.510500    0.422700 H        1 SUBUNIT    0.0287
     10 H10           3.312900    1.498600   -1.044300 H        1 SUBUNIT    0.0287
     11 H11           1.011300    1.881500   -0.884600 H        1 SUBUNIT    0.0563
     12 H12           1.012200    1.881200    0.885100 H        1 SUBUNIT    0.0563
@<TRIPOS>BOND
     1    1    4 1
     2    2    5 1
     3    2    3 1
     4    2    9 1
     5    2   10 1
     6    3    4 1
     7    3   11 1
     8    3   12 1
     9    5    6 1
    10    5    7 1
    11    5    8 1
@<SCITEGIC>ATOM_PROPERTY
Formal Charge
SciTegic.value.StringValue
1 0
2 0
3 0
4 0
5 0
6 0
7 0
8 0
9 0
10 0
11 0
12 0

@<SCITEGIC>ATOM_PROPERTY
pdb_tempFactor
SciTegic.value.DoubleValue
1 0.00
2 0.00
3 0.00
4 0.00
5 0.00
6 0.00
7 0.00
8 0.00
9 0.00
10 0.00
11 0.00
12 0.00

@<SCITEGIC>ATOM_PROPERTY
pdb_occupancy
SciTegic.value.DoubleValue
1 1.00
2 1.00
3 1.00
4 1.00
5 1.00
6 1.00
7 1.00
8 1.00
9 1.00
10 1.00
11 1.00
12 1.00

#	copyright 2023 drugdesign.org
#	Creation time:	2024-01-11T10:58:44Z

@<TRIPOS>MOLECULE
propanol_360.sd
   12    11     0 0 0
SMALL
USER_CHARGES


@<TRIPOS>ATOM
      1 H1            0.000000    0.000000    0.000000 H        1 SUBUNIT    0.2100
      2 C2            2.945200    1.441100   -0.000700 C.3      1 SUBUNIT   -0.0327
      3 C3            1.414900    1.350200    0.000000 C.3      1 SUBUNIT    0.0429
      4 O4            0.950000    0.000000    0.000000 O.3      1 SUBUNIT   -0.3962
      5 C5            3.459900    2.634600    0.812200 C.3      1 SUBUNIT   -0.0632
      6 H6            3.067000    3.580700    0.390000 H        1 SUBUNIT    0.0231
      7 H7            3.129000    2.548600    1.866100 H        1 SUBUNIT    0.0231
      8 H8            4.567200    2.663900    0.786200 H        1 SUBUNIT    0.0231
      9 H9            3.372700    0.503300    0.406000 H        1 SUBUNIT    0.0287
     10 H10           3.311900    1.516800   -1.043500 H        1 SUBUNIT    0.0287
     11 H11           1.011300    1.881500   -0.884600 H        1 SUBUNIT    0.0563
     12 H12           1.012200    1.881200    0.885100 H        1 SUBUNIT    0.0563
@<TRIPOS>BOND
     1    1    4 1
     2    2    5 1
     3    2    3 1
     4    2    9 1
     5    2   10 1
     6    3    4 1
     7    3   11 1
     8    3   12 1
     9    5    6 1
    10    5    7 1
    11    5    8 1
@<SCITEGIC>ATOM_PROPERTY
Formal Charge
SciTegic.value.StringValue
1 0
2 0
3 0
4 0
5 0
6 0
7 0
8 0
9 0
10 0
11 0
12 0

@<SCITEGIC>ATOM_PROPERTY
pdb_tempFactor
SciTegic.value.DoubleValue
1 0.00
2 0.00
3 0.00
4 0.00
5 0.00
6 0.00
7 0.00
8 0.00
9 0.00
10 0.00
11 0.00
12 0.00

@<SCITEGIC>ATOM_PROPERTY
pdb_occupancy
SciTegic.value.DoubleValue
1 1.00
2 1.00
3 1.00
4 1.00
5 1.00
6 1.00
7 1.00
8 1.00
9 1.00
10 1.00
11 1.00
12 1.00

#	copyright 2023 drugdesign.org
#	Creation time:	2024-01-11T10:58:44Z

@<TRIPOS>MOLECULE
propanol_360.sd
   12    11     0 0 0
SMALL
USER_CHARGES


@<TRIPOS>ATOM
      1 H1            0.000000    0.000000    0.000000 H        1 SUBUNIT    0.2100
      2 C2            2.945200    1.441100   -0.000700 C.3      1 SUBUNIT   -0.0327
      3 C3            1.414900    1.350200    0.000000 C.3      1 SUBUNIT    0.0429
      4 O4            0.950000    0.000000    0.000000 O.3      1 SUBUNIT   -0.3962
      5 C5            3.460700    2.620200    0.832300 C.3      1 SUBUNIT   -0.0632
      6 H6            3.067400    3.573500    0.427100 H        1 SUBUNIT    0.0231
      7 H7            3.130900    2.515900    1.884900 H        1 SUBUNIT    0.0231
      8 H8            4.568000    2.650000    0.805700 H        1 SUBUNIT    0.0231
      9 H9            3.373100    0.496400    0.389100 H        1 SUBUNIT    0.0287
     10 H10           3.310800    1.534900   -1.042400 H        1 SUBUNIT    0.0287
     11 H11           1.011300    1.881500   -0.884600 H        1 SUBUNIT    0.0563
     12 H12           1.012200    1.881200    0.885100 H        1 SUBUNIT    0.0563
@<TRIPOS>BOND
     1    1    4 1
     2    2    5 1
     3    2    3 1
     4    2    9 1
     5    2   10 1
     6    3    4 1
     7    3   11 1
     8    3   12 1
     9    5    6 1
    10    5    7 1
    11    5    8 1
@<SCITEGIC>ATOM_PROPERTY
Formal Charge
SciTegic.value.StringValue
1 0
2 0
3 0
4 0
5 0
6 0
7 0
8 0
9 0
10 0
11 0
12 0

@<SCITEGIC>ATOM_PROPERTY
pdb_tempFactor
SciTegic.value.DoubleValue
1 0.00
2 0.00
3 0.00
4 0.00
5 0.00
6 0.00
7 0.00
8 0.00
9 0.00
10 0.00
11 0.00
12 0.00

@<SCITEGIC>ATOM_PROPERTY
pdb_occupancy
SciTegic.value.DoubleValue
1 1.00
2 1.00
3 1.00
4 1.00
5 1.00
6 1.00
7 1.00
8 1.00
9 1.00
10 1.00
11 1.00
12 1.00

#	copyright 2023 drugdesign.org
#	Creation time:	2024-01-11T10:58:44Z

@<TRIPOS>MOLECULE
propanol_360.sd
   12    11     0 0 0
SMALL
USER_CHARGES


@<TRIPOS>ATOM
      1 H1            0.000000    0.000000    0.000000 H        1 SUBUNIT    0.2100
      2 C2            2.945200    1.441100   -0.000700 C.3      1 SUBUNIT   -0.0327
      3 C3            1.414900    1.350200    0.000000 C.3      1 SUBUNIT    0.0429
      4 O4            0.950000    0.000000    0.000000 O.3      1 SUBUNIT   -0.3962
      5 C5            3.461600    2.605600    0.852200 C.3      1 SUBUNIT   -0.0632
      6 H6            3.067900    3.565800    0.464000 H        1 SUBUNIT    0.0231
      7 H7            3.132900    2.482900    1.903200 H        1 SUBUNIT    0.0231
      8 H8            4.568900    2.635800    0.824900 H        1 SUBUNIT    0.0231
      9 H9            3.373500    0.489700    0.372200 H        1 SUBUNIT    0.0287
     10 H10           3.309700    1.553100   -1.041000 H        1 SUBUNIT    0.0287
     11 H11           1.011300    1.881500   -0.884600 H        1 SUBUNIT    0.0563
     12 H12           1.012200    1.881200    0.885100 H        1 SUBUNIT    0.0563
@<TRIPOS>BOND
     1    1    4 1
     2    2    5 1
     3    2    3 1
     4    2    9 1
     5    2   10 1
     6    3    4 1
     7    3   11 1
     8    3   12 1
     9    5    6 1
    10    5    7 1
    11    5    8 1
@<SCITEGIC>ATOM_PROPERTY
Formal Charge
SciTegic.value.StringValue
1 0
2 0
3 0
4 0
5 0
6 0
7 0
8 0
9 0
10 0
11 0
12 0

@<SCITEGIC>ATOM_PROPERTY
pdb_tempFactor
SciTegic.value.DoubleValue
1 0.00
2 0.00
3 0.00
4 0.00
5 0.00
6 0.00
7 0.00
8 0.00
9 0.00
10 0.00
11 0.00
12 0.00

@<SCITEGIC>ATOM_PROPERTY
pdb_occupancy
SciTegic.value.DoubleValue
1 1.00
2 1.00
3 1.00
4 1.00
5 1.00
6 1.00
7 1.00
8 1.00
9 1.00
10 1.00
11 1.00
12 1.00

#	copyright 2023 drugdesign.org
#	Creation time:	2024-01-11T10:58:44Z

@<TRIPOS>MOLECULE
propanol_360.sd
   12    11     0 0 0
SMALL
USER_CHARGES


@<TRIPOS>ATOM
      1 H1            0.000000    0.000000    0.000000 H        1 SUBUNIT    0.2100
      2 C2            2.945200    1.441100   -0.000700 C.3      1 SUBUNIT   -0.0327
      3 C3            1.414900    1.350200    0.000000 C.3      1 SUBUNIT    0.0429
      4 O4            0.950000    0.000000    0.000000 O.3      1 SUBUNIT   -0.3962
      5 C5            3.462500    2.590500    0.871800 C.3      1 SUBUNIT   -0.0632
      6 H6            3.068400    3.557300    0.500800 H        1 SUBUNIT    0.0231
      7 H7            3.134900    2.449500    1.920800 H        1 SUBUNIT    0.0231
      8 H8            4.569800    2.621200    0.843900 H        1 SUBUNIT    0.0231
      9 H9            3.373900    0.483400    0.355100 H        1 SUBUNIT    0.0287
     10 H10           3.308600    1.571200   -1.039300 H        1 SUBUNIT    0.0287
     11 H11           1.011300    1.881500   -0.884600 H        1 SUBUNIT    0.0563
     12 H12           1.012200    1.881200    0.885100 H        1 SUBUNIT    0.0563
@<TRIPOS>BOND
     1    1    4 1
     2    2    5 1
     3    2    3 1
     4    2    9 1
     5    2   10 1
     6    3    4 1
     7    3   11 1
     8    3   12 1
     9    5    6 1
    10    5    7 1
    11    5    8 1
@<SCITEGIC>ATOM_PROPERTY
Formal Charge
SciTegic.value.StringValue
1 0
2 0
3 0
4 0
5 0
6 0
7 0
8 0
9 0
10 0
11 0
12 0

@<SCITEGIC>ATOM_PROPERTY
pdb_tempFactor
SciTegic.value.DoubleValue
1 0.00
2 0.00
3 0.00
4 0.00
5 0.00
6 0.00
7 0.00
8 0.00
9 0.00
10 0.00
11 0.00
12 0.00

@<SCITEGIC>ATOM_PROPERTY
pdb_occupancy
SciTegic.value.DoubleValue
1 1.00
2 1.00
3 1.00
4 1.00
5 1.00
6 1.00
7 1.00
8 1.00
9 1.00
10 1.00
11 1.00
12 1.00

#	copyright 2023 drugdesign.org
#	Creation time:	2024-01-11T10:58:44Z

@<TRIPOS>MOLECULE
propanol_360.sd
   12    11     0 0 0
SMALL
USER_CHARGES


@<TRIPOS>ATOM
      1 H1            0.000000    0.000000    0.000000 H        1 SUBUNIT    0.2100
      2 C2            2.945200    1.441100   -0.000700 C.3      1 SUBUNIT   -0.0327
      3 C3            1.414900    1.350200    0.000000 C.3      1 SUBUNIT    0.0429
      4 O4            0.950000    0.000000    0.000000 O.3      1 SUBUNIT   -0.3962
      5 C5            3.463500    2.575100    0.891200 C.3      1 SUBUNIT   -0.0632
      6 H6            3.069000    3.548300    0.537500 H        1 SUBUNIT    0.0231
      7 H7            3.136900    2.415900    1.937900 H        1 SUBUNIT    0.0231
      8 H8            4.570600    2.606300    0.862700 H        1 SUBUNIT    0.0231
      9 H9            3.374200    0.477300    0.337900 H        1 SUBUNIT    0.0287
     10 H10           3.307600    1.589300   -1.037200 H        1 SUBUNIT    0.0287
     11 H11           1.011300    1.881500   -0.884600 H        1 SUBUNIT    0.0563
     12 H12           1.012200    1.881200    0.885100 H        1 SUBUNIT    0.0563
@<TRIPOS>BOND
     1    1    4 1
     2    2    5 1
     3    2    3 1
     4    2    9 1
     5    2   10 1
     6    3    4 1
     7    3   11 1
     8    3   12 1
     9    5    6 1
    10    5    7 1
    11    5    8 1
@<SCITEGIC>ATOM_PROPERTY
Formal Charge
SciTegic.value.StringValue
1 0
2 0
3 0
4 0
5 0
6 0
7 0
8 0
9 0
10 0
11 0
12 0

@<SCITEGIC>ATOM_PROPERTY
pdb_tempFactor
SciTegic.value.DoubleValue
1 0.00
2 0.00
3 0.00
4 0.00
5 0.00
6 0.00
7 0.00
8 0.00
9 0.00
10 0.00
11 0.00
12 0.00

@<SCITEGIC>ATOM_PROPERTY
pdb_occupancy
SciTegic.value.DoubleValue
1 1.00
2 1.00
3 1.00
4 1.00
5 1.00
6 1.00
7 1.00
8 1.00
9 1.00
10 1.00
11 1.00
12 1.00

#	copyright 2023 drugdesign.org
#	Creation time:	2024-01-11T10:58:44Z

@<TRIPOS>MOLECULE
propanol_360.sd
   12    11     0 0 0
SMALL
USER_CHARGES


@<TRIPOS>ATOM
      1 H1            0.000000    0.000000    0.000000 H        1 SUBUNIT    0.2100
      2 C2            2.945200    1.441100   -0.000700 C.3      1 SUBUNIT   -0.0327
      3 C3            1.414900    1.350200    0.000000 C.3      1 SUBUNIT    0.0429
      4 O4            0.950000    0.000000    0.000000 O.3      1 SUBUNIT   -0.3962
      5 C5            3.464400    2.559400    0.910200 C.3      1 SUBUNIT   -0.0632
      6 H6            3.069600    3.538600    0.574000 H        1 SUBUNIT    0.0231
      7 H7            3.138900    2.382000    1.954400 H        1 SUBUNIT    0.0231
      8 H8            4.571600    2.591100    0.881200 H        1 SUBUNIT    0.0231
      9 H9            3.374600    0.471500    0.320600 H        1 SUBUNIT    0.0287
     10 H10           3.306500    1.607300   -1.034900 H        1 SUBUNIT    0.0287
     11 H11           1.011300    1.881500   -0.884600 H        1 SUBUNIT    0.0563
     12 H12           1.012200    1.881200    0.885100 H        1 SUBUNIT    0.0563
@<TRIPOS>BOND
     1    1    4 1
     2    2    5 1
     3    2    3 1
     4    2    9 1
     5    2   10 1
     6    3    4 1
     7    3   11 1
     8    3   12 1
     9    5    6 1
    10    5    7 1
    11    5    8 1
@<SCITEGIC>ATOM_PROPERTY
Formal Charge
SciTegic.value.StringValue
1 0
2 0
3 0
4 0
5 0
6 0
7 0
8 0
9 0
10 0
11 0
12 0

@<SCITEGIC>ATOM_PROPERTY
pdb_tempFactor
SciTegic.value.DoubleValue
1 0.00
2 0.00
3 0.00
4 0.00
5 0.00
6 0.00
7 0.00
8 0.00
9 0.00
10 0.00
11 0.00
12 0.00

@<SCITEGIC>ATOM_PROPERTY
pdb_occupancy
SciTegic.value.DoubleValue
1 1.00
2 1.00
3 1.00
4 1.00
5 1.00
6 1.00
7 1.00
8 1.00
9 1.00
10 1.00
11 1.00
12 1.00

#	copyright 2023 drugdesign.org
#	Creation time:	2024-01-11T10:58:44Z

@<TRIPOS>MOLECULE
propanol_360.sd
   12    11     0 0 0
SMALL
USER_CHARGES


@<TRIPOS>ATOM
      1 H1            0.000000    0.000000    0.000000 H        1 SUBUNIT    0.2100
      2 C2            2.945200    1.441100   -0.000700 C.3      1 SUBUNIT   -0.0327
      3 C3            1.414900    1.350200    0.000000 C.3      1 SUBUNIT    0.0429
      4 O4            0.950000    0.000000    0.000000 O.3      1 SUBUNIT   -0.3962
      5 C5            3.465400    2.543400    0.929100 C.3      1 SUBUNIT   -0.0632
      6 H6            3.070200    3.528300    0.610300 H        1 SUBUNIT    0.0231
      7 H7            3.141000    2.347800    1.970300 H        1 SUBUNIT    0.0231
      8 H8            4.572500    2.575600    0.899400 H        1 SUBUNIT    0.0231
      9 H9            3.374900    0.466100    0.303300 H        1 SUBUNIT    0.0287
     10 H10           3.305400    1.625300   -1.032200 H        1 SUBUNIT    0.0287
     11 H11           1.011300    1.881500   -0.884600 H        1 SUBUNIT    0.0563
     12 H12           1.012200    1.881200    0.885100 H        1 SUBUNIT    0.0563
@<TRIPOS>BOND
     1    1    4 1
     2    2    5 1
     3    2    3 1
     4    2    9 1
     5    2   10 1
     6    3    4 1
     7    3   11 1
     8    3   12 1
     9    5    6 1
    10    5    7 1
    11    5    8 1
@<SCITEGIC>ATOM_PROPERTY
Formal Charge
SciTegic.value.StringValue
1 0
2 0
3 0
4 0
5 0
6 0
7 0
8 0
9 0
10 0
11 0
12 0

@<SCITEGIC>ATOM_PROPERTY
pdb_tempFactor
SciTegic.value.DoubleValue
1 0.00
2 0.00
3 0.00
4 0.00
5 0.00
6 0.00
7 0.00
8 0.00
9 0.00
10 0.00
11 0.00
12 0.00

@<SCITEGIC>ATOM_PROPERTY
pdb_occupancy
SciTegic.value.DoubleValue
1 1.00
2 1.00
3 1.00
4 1.00
5 1.00
6 1.00
7 1.00
8 1.00
9 1.00
10 1.00
11 1.00
12 1.00

#	copyright 2023 drugdesign.org
#	Creation time:	2024-01-11T10:58:44Z

@<TRIPOS>MOLECULE
propanol_360.sd
   12    11     0 0 0
SMALL
USER_CHARGES


@<TRIPOS>ATOM
      1 H1            0.000000    0.000000    0.000000 H        1 SUBUNIT    0.2100
      2 C2            2.945200    1.441100   -0.000700 C.3      1 SUBUNIT   -0.0327
      3 C3            1.414900    1.350200    0.000000 C.3      1 SUBUNIT    0.0429
      4 O4            0.950000    0.000000    0.000000 O.3      1 SUBUNIT   -0.3962
      5 C5            3.466300    2.527000    0.947600 C.3      1 SUBUNIT   -0.0632
      6 H6            3.070900    3.517300    0.646500 H        1 SUBUNIT    0.0231
      7 H7            3.143000    2.313300    1.985600 H        1 SUBUNIT    0.0231
      8 H8            4.573400    2.559700    0.917300 H        1 SUBUNIT    0.0231
      9 H9            3.375200    0.461000    0.285800 H        1 SUBUNIT    0.0287
     10 H10           3.304300    1.643200   -1.029200 H        1 SUBUNIT    0.0287
     11 H11           1.011300    1.881500   -0.884600 H        1 SUBUNIT    0.0563
     12 H12           1.012200    1.881200    0.885100 H        1 SUBUNIT    0.0563
@<TRIPOS>BOND
     1    1    4 1
     2    2    5 1
     3    2    3 1
     4    2    9 1
     5    2   10 1
     6    3    4 1
     7    3   11 1
     8    3   12 1
     9    5    6 1
    10    5    7 1
    11    5    8 1
@<SCITEGIC>ATOM_PROPERTY
Formal Charge
SciTegic.value.StringValue
1 0
2 0
3 0
4 0
5 0
6 0
7 0
8 0
9 0
10 0
11 0
12 0

@<SCITEGIC>ATOM_PROPERTY
pdb_tempFactor
SciTegic.value.DoubleValue
1 0.00
2 0.00
3 0.00
4 0.00
5 0.00
6 0.00
7 0.00
8 0.00
9 0.00
10 0.00
11 0.00
12 0.00

@<SCITEGIC>ATOM_PROPERTY
pdb_occupancy
SciTegic.value.DoubleValue
1 1.00
2 1.00
3 1.00
4 1.00
5 1.00
6 1.00
7 1.00
8 1.00
9 1.00
10 1.00
11 1.00
12 1.00

#	copyright 2023 drugdesign.org
#	Creation time:	2024-01-11T10:58:44Z

@<TRIPOS>MOLECULE
propanol_360.sd
   12    11     0 0 0
SMALL
USER_CHARGES


@<TRIPOS>ATOM
      1 H1            0.000000    0.000000    0.000000 H        1 SUBUNIT    0.2100
      2 C2            2.945200    1.441100   -0.000700 C.3      1 SUBUNIT   -0.0327
      3 C3            1.414900    1.350200    0.000000 C.3      1 SUBUNIT    0.0429
      4 O4            0.950000    0.000000    0.000000 O.3      1 SUBUNIT   -0.3962
      5 C5            3.467300    2.510300    0.965800 C.3      1 SUBUNIT   -0.0632
      6 H6            3.071600    3.505700    0.682400 H        1 SUBUNIT    0.0231
      7 H7            3.145100    2.278600    2.000300 H        1 SUBUNIT    0.0231
      8 H8            4.574400    2.543500    0.935000 H        1 SUBUNIT    0.0231
      9 H9            3.375500    0.456100    0.268200 H        1 SUBUNIT    0.0287
     10 H10           3.303300    1.661100   -1.025900 H        1 SUBUNIT    0.0287
     11 H11           1.011300    1.881500   -0.884600 H        1 SUBUNIT    0.0563
     12 H12           1.012200    1.881200    0.885100 H        1 SUBUNIT    0.0563
@<TRIPOS>BOND
     1    1    4 1
     2    2    5 1
     3    2    3 1
     4    2    9 1
     5    2   10 1
     6    3    4 1
     7    3   11 1
     8    3   12 1
     9    5    6 1
    10    5    7 1
    11    5    8 1
@<SCITEGIC>ATOM_PROPERTY
Formal Charge
SciTegic.value.StringValue
1 0
2 0
3 0
4 0
5 0
6 0
7 0
8 0
9 0
10 0
11 0
12 0

@<SCITEGIC>ATOM_PROPERTY
pdb_tempFactor
SciTegic.value.DoubleValue
1 0.00
2 0.00
3 0.00
4 0.00
5 0.00
6 0.00
7 0.00
8 0.00
9 0.00
10 0.00
11 0.00
12 0.00

@<SCITEGIC>ATOM_PROPERTY
pdb_occupancy
SciTegic.value.DoubleValue
1 1.00
2 1.00
3 1.00
4 1.00
5 1.00
6 1.00
7 1.00
8 1.00
9 1.00
10 1.00
11 1.00
12 1.00

#	copyright 2023 drugdesign.org
#	Creation time:	2024-01-11T10:58:44Z

@<TRIPOS>MOLECULE
propanol_360.sd
   12    11     0 0 0
SMALL
USER_CHARGES


@<TRIPOS>ATOM
      1 H1            0.000000    0.000000    0.000000 H        1 SUBUNIT    0.2100
      2 C2            2.945200    1.441100   -0.000700 C.3      1 SUBUNIT   -0.0327
      3 C3            1.414900    1.350200    0.000000 C.3      1 SUBUNIT    0.0429
      4 O4            0.950000    0.000000    0.000000 O.3      1 SUBUNIT   -0.3962
      5 C5            3.468400    2.493300    0.983700 C.3      1 SUBUNIT   -0.0632
      6 H6            3.072300    3.493500    0.718100 H        1 SUBUNIT    0.0231
      7 H7            3.147200    2.243600    2.014400 H        1 SUBUNIT    0.0231
      8 H8            4.575400    2.527100    0.952400 H        1 SUBUNIT    0.0231
      9 H9            3.375700    0.451600    0.250600 H        1 SUBUNIT    0.0287
     10 H10           3.302200    1.679000   -1.022300 H        1 SUBUNIT    0.0287
     11 H11           1.011300    1.881500   -0.884600 H        1 SUBUNIT    0.0563
     12 H12           1.012200    1.881200    0.885100 H        1 SUBUNIT    0.0563
@<TRIPOS>BOND
     1    1    4 1
     2    2    5 1
     3    2    3 1
     4    2    9 1
     5    2   10 1
     6    3    4 1
     7    3   11 1
     8    3   12 1
     9    5    6 1
    10    5    7 1
    11    5    8 1
@<SCITEGIC>ATOM_PROPERTY
Formal Charge
SciTegic.value.StringValue
1 0
2 0
3 0
4 0
5 0
6 0
7 0
8 0
9 0
10 0
11 0
12 0

@<SCITEGIC>ATOM_PROPERTY
pdb_tempFactor
SciTegic.value.DoubleValue
1 0.00
2 0.00
3 0.00
4 0.00
5 0.00
6 0.00
7 0.00
8 0.00
9 0.00
10 0.00
11 0.00
12 0.00

@<SCITEGIC>ATOM_PROPERTY
pdb_occupancy
SciTegic.value.DoubleValue
1 1.00
2 1.00
3 1.00
4 1.00
5 1.00
6 1.00
7 1.00
8 1.00
9 1.00
10 1.00
11 1.00
12 1.00

#	copyright 2023 drugdesign.org
#	Creation time:	2024-01-11T10:58:44Z

@<TRIPOS>MOLECULE
propanol_360.sd
   12    11     0 0 0
SMALL
USER_CHARGES


@<TRIPOS>ATOM
      1 H1            0.000000    0.000000    0.000000 H        1 SUBUNIT    0.2100
      2 C2            2.945200    1.441100   -0.000700 C.3      1 SUBUNIT   -0.0327
      3 C3            1.414900    1.350200    0.000000 C.3      1 SUBUNIT    0.0429
      4 O4            0.950000    0.000000    0.000000 O.3      1 SUBUNIT   -0.3962
      5 C5            3.469400    2.476000    1.001400 C.3      1 SUBUNIT   -0.0632
      6 H6            3.073100    3.480700    0.753700 H        1 SUBUNIT    0.0231
      7 H7            3.149300    2.208400    2.027800 H        1 SUBUNIT    0.0231
      8 H8            4.576400    2.510300    0.969400 H        1 SUBUNIT    0.0231
      9 H9            3.376000    0.447300    0.232800 H        1 SUBUNIT    0.0287
     10 H10           3.301200    1.696700   -1.018300 H        1 SUBUNIT    0.0287
     11 H11           1.011300    1.881500   -0.884600 H        1 SUBUNIT    0.0563
     12 H12           1.012200    1.881200    0.885100 H        1 SUBUNIT    0.0563
@<TRIPOS>BOND
     1    1    4 1
     2    2    5 1
     3    2    3 1
     4    2    9 1
     5    2   10 1
     6    3    4 1
     7    3   11 1
     8    3   12 1
     9    5    6 1
    10    5    7 1
    11    5    8 1
@<SCITEGIC>ATOM_PROPERTY
Formal Charge
SciTegic.value.StringValue
1 0
2 0
3 0
4 0
5 0
6 0
7 0
8 0
9 0
10 0
11 0
12 0

@<SCITEGIC>ATOM_PROPERTY
pdb_tempFactor
SciTegic.value.DoubleValue
1 0.00
2 0.00
3 0.00
4 0.00
5 0.00
6 0.00
7 0.00
8 0.00
9 0.00
10 0.00
11 0.00
12 0.00

@<SCITEGIC>ATOM_PROPERTY
pdb_occupancy
SciTegic.value.DoubleValue
1 1.00
2 1.00
3 1.00
4 1.00
5 1.00
6 1.00
7 1.00
8 1.00
9 1.00
10 1.00
11 1.00
12 1.00

#	copyright 2023 drugdesign.org
#	Creation time:	2024-01-11T10:58:44Z

@<TRIPOS>MOLECULE
propanol_360.sd
   12    11     0 0 0
SMALL
USER_CHARGES


@<TRIPOS>ATOM
      1 H1            0.000000    0.000000    0.000000 H        1 SUBUNIT    0.2100
      2 C2            2.945200    1.441100   -0.000700 C.3      1 SUBUNIT   -0.0327
      3 C3            1.414900    1.350200    0.000000 C.3      1 SUBUNIT    0.0429
      4 O4            0.950000    0.000000    0.000000 O.3      1 SUBUNIT   -0.3962
      5 C5            3.470400    2.458400    1.018700 C.3      1 SUBUNIT   -0.0632
      6 H6            3.073900    3.467200    0.788900 H        1 SUBUNIT    0.0231
      7 H7            3.151400    2.172900    2.040700 H        1 SUBUNIT    0.0231
      8 H8            4.577400    2.493300    0.986200 H        1 SUBUNIT    0.0231
      9 H9            3.376200    0.443400    0.215000 H        1 SUBUNIT    0.0287
     10 H10           3.300100    1.714400   -1.014100 H        1 SUBUNIT    0.0287
     11 H11           1.011300    1.881500   -0.884600 H        1 SUBUNIT    0.0563
     12 H12           1.012200    1.881200    0.885100 H        1 SUBUNIT    0.0563
@<TRIPOS>BOND
     1    1    4 1
     2    2    5 1
     3    2    3 1
     4    2    9 1
     5    2   10 1
     6    3    4 1
     7    3   11 1
     8    3   12 1
     9    5    6 1
    10    5    7 1
    11    5    8 1
@<SCITEGIC>ATOM_PROPERTY
Formal Charge
SciTegic.value.StringValue
1 0
2 0
3 0
4 0
5 0
6 0
7 0
8 0
9 0
10 0
11 0
12 0

@<SCITEGIC>ATOM_PROPERTY
pdb_tempFactor
SciTegic.value.DoubleValue
1 0.00
2 0.00
3 0.00
4 0.00
5 0.00
6 0.00
7 0.00
8 0.00
9 0.00
10 0.00
11 0.00
12 0.00

@<SCITEGIC>ATOM_PROPERTY
pdb_occupancy
SciTegic.value.DoubleValue
1 1.00
2 1.00
3 1.00
4 1.00
5 1.00
6 1.00
7 1.00
8 1.00
9 1.00
10 1.00
11 1.00
12 1.00

#	copyright 2023 drugdesign.org
#	Creation time:	2024-01-11T10:58:44Z

@<TRIPOS>MOLECULE
propanol_360.sd
   12    11     0 0 0
SMALL
USER_CHARGES


@<TRIPOS>ATOM
      1 H1            0.000000    0.000000    0.000000 H        1 SUBUNIT    0.2100
      2 C2            2.945200    1.441100   -0.000700 C.3      1 SUBUNIT   -0.0327
      3 C3            1.414900    1.350200    0.000000 C.3      1 SUBUNIT    0.0429
      4 O4            0.950000    0.000000    0.000000 O.3      1 SUBUNIT   -0.3962
      5 C5            3.471500    2.440500    1.035700 C.3      1 SUBUNIT   -0.0632
      6 H6            3.074800    3.453100    0.824000 H        1 SUBUNIT    0.0231
      7 H7            3.153500    2.137200    2.052900 H        1 SUBUNIT    0.0231
      8 H8            4.578500    2.475900    1.002700 H        1 SUBUNIT    0.0231
      9 H9            3.376400    0.439800    0.197200 H        1 SUBUNIT    0.0287
     10 H10           3.299100    1.732000   -1.009600 H        1 SUBUNIT    0.0287
     11 H11           1.011300    1.881500   -0.884600 H        1 SUBUNIT    0.0563
     12 H12           1.012200    1.881200    0.885100 H        1 SUBUNIT    0.0563
@<TRIPOS>BOND
     1    1    4 1
     2    2    5 1
     3    2    3 1
     4    2    9 1
     5    2   10 1
     6    3    4 1
     7    3   11 1
     8    3   12 1
     9    5    6 1
    10    5    7 1
    11    5    8 1
@<SCITEGIC>ATOM_PROPERTY
Formal Charge
SciTegic.value.StringValue
1 0
2 0
3 0
4 0
5 0
6 0
7 0
8 0
9 0
10 0
11 0
12 0

@<SCITEGIC>ATOM_PROPERTY
pdb_tempFactor
SciTegic.value.DoubleValue
1 0.00
2 0.00
3 0.00
4 0.00
5 0.00
6 0.00
7 0.00
8 0.00
9 0.00
10 0.00
11 0.00
12 0.00

@<SCITEGIC>ATOM_PROPERTY
pdb_occupancy
SciTegic.value.DoubleValue
1 1.00
2 1.00
3 1.00
4 1.00
5 1.00
6 1.00
7 1.00
8 1.00
9 1.00
10 1.00
11 1.00
12 1.00

#	copyright 2023 drugdesign.org
#	Creation time:	2024-01-11T10:58:44Z

@<TRIPOS>MOLECULE
propanol_360.sd
   12    11     0 0 0
SMALL
USER_CHARGES


@<TRIPOS>ATOM
      1 H1            0.000000    0.000000    0.000000 H        1 SUBUNIT    0.2100
      2 C2            2.945200    1.441100   -0.000700 C.3      1 SUBUNIT   -0.0327
      3 C3            1.414900    1.350200    0.000000 C.3      1 SUBUNIT    0.0429
      4 O4            0.950000    0.000000    0.000000 O.3      1 SUBUNIT   -0.3962
      5 C5            3.472600    2.422300    1.052500 C.3      1 SUBUNIT   -0.0632
      6 H6            3.075700    3.438500    0.858800 H        1 SUBUNIT    0.0231
      7 H7            3.155600    2.101300    2.064500 H        1 SUBUNIT    0.0231
      8 H8            4.579500    2.458300    1.018900 H        1 SUBUNIT    0.0231
      9 H9            3.376600    0.436500    0.179300 H        1 SUBUNIT    0.0287
     10 H10           3.298000    1.749600   -1.004700 H        1 SUBUNIT    0.0287
     11 H11           1.011300    1.881500   -0.884600 H        1 SUBUNIT    0.0563
     12 H12           1.012200    1.881200    0.885100 H        1 SUBUNIT    0.0563
@<TRIPOS>BOND
     1    1    4 1
     2    2    5 1
     3    2    3 1
     4    2    9 1
     5    2   10 1
     6    3    4 1
     7    3   11 1
     8    3   12 1
     9    5    6 1
    10    5    7 1
    11    5    8 1
@<SCITEGIC>ATOM_PROPERTY
Formal Charge
SciTegic.value.StringValue
1 0
2 0
3 0
4 0
5 0
6 0
7 0
8 0
9 0
10 0
11 0
12 0

@<SCITEGIC>ATOM_PROPERTY
pdb_tempFactor
SciTegic.value.DoubleValue
1 0.00
2 0.00
3 0.00
4 0.00
5 0.00
6 0.00
7 0.00
8 0.00
9 0.00
10 0.00
11 0.00
12 0.00

@<SCITEGIC>ATOM_PROPERTY
pdb_occupancy
SciTegic.value.DoubleValue
1 1.00
2 1.00
3 1.00
4 1.00
5 1.00
6 1.00
7 1.00
8 1.00
9 1.00
10 1.00
11 1.00
12 1.00

#	copyright 2023 drugdesign.org
#	Creation time:	2024-01-11T10:58:44Z

@<TRIPOS>MOLECULE
propanol_360.sd
   12    11     0 0 0
SMALL
USER_CHARGES


@<TRIPOS>ATOM
      1 H1            0.000000    0.000000    0.000000 H        1 SUBUNIT    0.2100
      2 C2            2.945200    1.441100   -0.000700 C.3      1 SUBUNIT   -0.0327
      3 C3            1.414900    1.350200    0.000000 C.3      1 SUBUNIT    0.0429
      4 O4            0.950000    0.000000    0.000000 O.3      1 SUBUNIT   -0.3962
      5 C5            3.473700    2.403800    1.068800 C.3      1 SUBUNIT   -0.0632
      6 H6            3.076600    3.423200    0.893300 H        1 SUBUNIT    0.0231
      7 H7            3.157800    2.065300    2.075500 H        1 SUBUNIT    0.0231
      8 H8            4.580600    2.440300    1.034800 H        1 SUBUNIT    0.0231
      9 H9            3.376800    0.433500    0.161300 H        1 SUBUNIT    0.0287
     10 H10           3.297000    1.767000   -0.999500 H        1 SUBUNIT    0.0287
     11 H11           1.011300    1.881500   -0.884600 H        1 SUBUNIT    0.0563
     12 H12           1.012200    1.881200    0.885100 H        1 SUBUNIT    0.0563
@<TRIPOS>BOND
     1    1    4 1
     2    2    5 1
     3    2    3 1
     4    2    9 1
     5    2   10 1
     6    3    4 1
     7    3   11 1
     8    3   12 1
     9    5    6 1
    10    5    7 1
    11    5    8 1
@<SCITEGIC>ATOM_PROPERTY
Formal Charge
SciTegic.value.StringValue
1 0
2 0
3 0
4 0
5 0
6 0
7 0
8 0
9 0
10 0
11 0
12 0

@<SCITEGIC>ATOM_PROPERTY
pdb_tempFactor
SciTegic.value.DoubleValue
1 0.00
2 0.00
3 0.00
4 0.00
5 0.00
6 0.00
7 0.00
8 0.00
9 0.00
10 0.00
11 0.00
12 0.00

@<SCITEGIC>ATOM_PROPERTY
pdb_occupancy
SciTegic.value.DoubleValue
1 1.00
2 1.00
3 1.00
4 1.00
5 1.00
6 1.00
7 1.00
8 1.00
9 1.00
10 1.00
11 1.00
12 1.00

#	copyright 2023 drugdesign.org
#	Creation time:	2024-01-11T10:58:44Z

@<TRIPOS>MOLECULE
propanol_360.sd
   12    11     0 0 0
SMALL
USER_CHARGES


@<TRIPOS>ATOM
      1 H1            0.000000    0.000000    0.000000 H        1 SUBUNIT    0.2100
      2 C2            2.945200    1.441100   -0.000700 C.3      1 SUBUNIT   -0.0327
      3 C3            1.414900    1.350200    0.000000 C.3      1 SUBUNIT    0.0429
      4 O4            0.950000    0.000000    0.000000 O.3      1 SUBUNIT   -0.3962
      5 C5            3.474800    2.385000    1.084900 C.3      1 SUBUNIT   -0.0632
      6 H6            3.077500    3.407300    0.927600 H        1 SUBUNIT    0.0231
      7 H7            3.160000    2.029000    2.085800 H        1 SUBUNIT    0.0231
      8 H8            4.581700    2.422200    1.050300 H        1 SUBUNIT    0.0231
      9 H9            3.376900    0.430900    0.143300 H        1 SUBUNIT    0.0287
     10 H10           3.296000    1.784400   -0.994100 H        1 SUBUNIT    0.0287
     11 H11           1.011300    1.881500   -0.884600 H        1 SUBUNIT    0.0563
     12 H12           1.012200    1.881200    0.885100 H        1 SUBUNIT    0.0563
@<TRIPOS>BOND
     1    1    4 1
     2    2    5 1
     3    2    3 1
     4    2    9 1
     5    2   10 1
     6    3    4 1
     7    3   11 1
     8    3   12 1
     9    5    6 1
    10    5    7 1
    11    5    8 1
@<SCITEGIC>ATOM_PROPERTY
Formal Charge
SciTegic.value.StringValue
1 0
2 0
3 0
4 0
5 0
6 0
7 0
8 0
9 0
10 0
11 0
12 0

@<SCITEGIC>ATOM_PROPERTY
pdb_tempFactor
SciTegic.value.DoubleValue
1 0.00
2 0.00
3 0.00
4 0.00
5 0.00
6 0.00
7 0.00
8 0.00
9 0.00
10 0.00
11 0.00
12 0.00

@<SCITEGIC>ATOM_PROPERTY
pdb_occupancy
SciTegic.value.DoubleValue
1 1.00
2 1.00
3 1.00
4 1.00
5 1.00
6 1.00
7 1.00
8 1.00
9 1.00
10 1.00
11 1.00
12 1.00

#	copyright 2023 drugdesign.org
#	Creation time:	2024-01-11T10:58:44Z

@<TRIPOS>MOLECULE
propanol_360.sd
   12    11     0 0 0
SMALL
USER_CHARGES


@<TRIPOS>ATOM
      1 H1            0.000000    0.000000    0.000000 H        1 SUBUNIT    0.2100
      2 C2            2.945200    1.441100   -0.000700 C.3      1 SUBUNIT   -0.0327
      3 C3            1.414900    1.350200    0.000000 C.3      1 SUBUNIT    0.0429
      4 O4            0.950000    0.000000    0.000000 O.3      1 SUBUNIT   -0.3962
      5 C5            3.476000    2.366000    1.100600 C.3      1 SUBUNIT   -0.0632
      6 H6            3.078500    3.390900    0.961500 H        1 SUBUNIT    0.0231
      7 H7            3.162100    1.992600    2.095500 H        1 SUBUNIT    0.0231
      8 H8            4.582800    2.403700    1.065600 H        1 SUBUNIT    0.0231
      9 H9            3.377000    0.428500    0.125200 H        1 SUBUNIT    0.0287
     10 H10           3.295000    1.801600   -0.988300 H        1 SUBUNIT    0.0287
     11 H11           1.011300    1.881500   -0.884600 H        1 SUBUNIT    0.0563
     12 H12           1.012200    1.881200    0.885100 H        1 SUBUNIT    0.0563
@<TRIPOS>BOND
     1    1    4 1
     2    2    5 1
     3    2    3 1
     4    2    9 1
     5    2   10 1
     6    3    4 1
     7    3   11 1
     8    3   12 1
     9    5    6 1
    10    5    7 1
    11    5    8 1
@<SCITEGIC>ATOM_PROPERTY
Formal Charge
SciTegic.value.StringValue
1 0
2 0
3 0
4 0
5 0
6 0
7 0
8 0
9 0
10 0
11 0
12 0

@<SCITEGIC>ATOM_PROPERTY
pdb_tempFactor
SciTegic.value.DoubleValue
1 0.00
2 0.00
3 0.00
4 0.00
5 0.00
6 0.00
7 0.00
8 0.00
9 0.00
10 0.00
11 0.00
12 0.00

@<SCITEGIC>ATOM_PROPERTY
pdb_occupancy
SciTegic.value.DoubleValue
1 1.00
2 1.00
3 1.00
4 1.00
5 1.00
6 1.00
7 1.00
8 1.00
9 1.00
10 1.00
11 1.00
12 1.00

#	copyright 2023 drugdesign.org
#	Creation time:	2024-01-11T10:58:44Z

@<TRIPOS>MOLECULE
propanol_360.sd
   12    11     0 0 0
SMALL
USER_CHARGES


@<TRIPOS>ATOM
      1 H1            0.000000    0.000000    0.000000 H        1 SUBUNIT    0.2100
      2 C2            2.945200    1.441100   -0.000700 C.3      1 SUBUNIT   -0.0327
      3 C3            1.414900    1.350200    0.000000 C.3      1 SUBUNIT    0.0429
      4 O4            0.950000    0.000000    0.000000 O.3      1 SUBUNIT   -0.3962
      5 C5            3.477100    2.346600    1.116000 C.3      1 SUBUNIT   -0.0632
      6 H6            3.079600    3.373800    0.995200 H        1 SUBUNIT    0.0231
      7 H7            3.164300    1.956000    2.104600 H        1 SUBUNIT    0.0231
      8 H8            4.583900    2.385000    1.080500 H        1 SUBUNIT    0.0231
      9 H9            3.377200    0.426500    0.107100 H        1 SUBUNIT    0.0287
     10 H10           3.293900    1.818800   -0.982200 H        1 SUBUNIT    0.0287
     11 H11           1.011300    1.881500   -0.884600 H        1 SUBUNIT    0.0563
     12 H12           1.012200    1.881200    0.885100 H        1 SUBUNIT    0.0563
@<TRIPOS>BOND
     1    1    4 1
     2    2    5 1
     3    2    3 1
     4    2    9 1
     5    2   10 1
     6    3    4 1
     7    3   11 1
     8    3   12 1
     9    5    6 1
    10    5    7 1
    11    5    8 1
@<SCITEGIC>ATOM_PROPERTY
Formal Charge
SciTegic.value.StringValue
1 0
2 0
3 0
4 0
5 0
6 0
7 0
8 0
9 0
10 0
11 0
12 0

@<SCITEGIC>ATOM_PROPERTY
pdb_tempFactor
SciTegic.value.DoubleValue
1 0.00
2 0.00
3 0.00
4 0.00
5 0.00
6 0.00
7 0.00
8 0.00
9 0.00
10 0.00
11 0.00
12 0.00

@<SCITEGIC>ATOM_PROPERTY
pdb_occupancy
SciTegic.value.DoubleValue
1 1.00
2 1.00
3 1.00
4 1.00
5 1.00
6 1.00
7 1.00
8 1.00
9 1.00
10 1.00
11 1.00
12 1.00

#	copyright 2023 drugdesign.org
#	Creation time:	2024-01-11T10:58:44Z

@<TRIPOS>MOLECULE
propanol_360.sd
   12    11     0 0 0
SMALL
USER_CHARGES


@<TRIPOS>ATOM
      1 H1            0.000000    0.000000    0.000000 H        1 SUBUNIT    0.2100
      2 C2            2.945200    1.441100   -0.000700 C.3      1 SUBUNIT   -0.0327
      3 C3            1.414900    1.350200    0.000000 C.3      1 SUBUNIT    0.0429
      4 O4            0.950000    0.000000    0.000000 O.3      1 SUBUNIT   -0.3962
      5 C5            3.478300    2.327100    1.131100 C.3      1 SUBUNIT   -0.0632
      6 H6            3.080600    3.356100    1.028600 H        1 SUBUNIT    0.0231
      7 H7            3.166500    1.919200    2.113000 H        1 SUBUNIT    0.0231
      8 H8            4.585000    2.366000    1.095100 H        1 SUBUNIT    0.0231
      9 H9            3.377200    0.424800    0.089000 H        1 SUBUNIT    0.0287
     10 H10           3.292900    1.835800   -0.975900 H        1 SUBUNIT    0.0287
     11 H11           1.011300    1.881500   -0.884600 H        1 SUBUNIT    0.0563
     12 H12           1.012200    1.881200    0.885100 H        1 SUBUNIT    0.0563
@<TRIPOS>BOND
     1    1    4 1
     2    2    5 1
     3    2    3 1
     4    2    9 1
     5    2   10 1
     6    3    4 1
     7    3   11 1
     8    3   12 1
     9    5    6 1
    10    5    7 1
    11    5    8 1
@<SCITEGIC>ATOM_PROPERTY
Formal Charge
SciTegic.value.StringValue
1 0
2 0
3 0
4 0
5 0
6 0
7 0
8 0
9 0
10 0
11 0
12 0

@<SCITEGIC>ATOM_PROPERTY
pdb_tempFactor
SciTegic.value.DoubleValue
1 0.00
2 0.00
3 0.00
4 0.00
5 0.00
6 0.00
7 0.00
8 0.00
9 0.00
10 0.00
11 0.00
12 0.00

@<SCITEGIC>ATOM_PROPERTY
pdb_occupancy
SciTegic.value.DoubleValue
1 1.00
2 1.00
3 1.00
4 1.00
5 1.00
6 1.00
7 1.00
8 1.00
9 1.00
10 1.00
11 1.00
12 1.00

#	copyright 2023 drugdesign.org
#	Creation time:	2024-01-11T10:58:44Z

@<TRIPOS>MOLECULE
propanol_360.sd
   12    11     0 0 0
SMALL
USER_CHARGES


@<TRIPOS>ATOM
      1 H1            0.000000    0.000000    0.000000 H        1 SUBUNIT    0.2100
      2 C2            2.945200    1.441100   -0.000700 C.3      1 SUBUNIT   -0.0327
      3 C3            1.414900    1.350200    0.000000 C.3      1 SUBUNIT    0.0429
      4 O4            0.950000    0.000000    0.000000 O.3      1 SUBUNIT   -0.3962
      5 C5            3.479500    2.307200    1.145800 C.3      1 SUBUNIT   -0.0632
      6 H6            3.081700    3.337900    1.061700 H        1 SUBUNIT    0.0231
      7 H7            3.168700    1.882300    2.120800 H        1 SUBUNIT    0.0231
      8 H8            4.586200    2.346800    1.109300 H        1 SUBUNIT    0.0231
      9 H9            3.377300    0.423400    0.070800 H        1 SUBUNIT    0.0287
     10 H10           3.291900    1.852700   -0.969200 H        1 SUBUNIT    0.0287
     11 H11           1.011300    1.881500   -0.884600 H        1 SUBUNIT    0.0563
     12 H12           1.012200    1.881200    0.885100 H        1 SUBUNIT    0.0563
@<TRIPOS>BOND
     1    1    4 1
     2    2    5 1
     3    2    3 1
     4    2    9 1
     5    2   10 1
     6    3    4 1
     7    3   11 1
     8    3   12 1
     9    5    6 1
    10    5    7 1
    11    5    8 1
@<SCITEGIC>ATOM_PROPERTY
Formal Charge
SciTegic.value.StringValue
1 0
2 0
3 0
4 0
5 0
6 0
7 0
8 0
9 0
10 0
11 0
12 0

@<SCITEGIC>ATOM_PROPERTY
pdb_tempFactor
SciTegic.value.DoubleValue
1 0.00
2 0.00
3 0.00
4 0.00
5 0.00
6 0.00
7 0.00
8 0.00
9 0.00
10 0.00
11 0.00
12 0.00

@<SCITEGIC>ATOM_PROPERTY
pdb_occupancy
SciTegic.value.DoubleValue
1 1.00
2 1.00
3 1.00
4 1.00
5 1.00
6 1.00
7 1.00
8 1.00
9 1.00
10 1.00
11 1.00
12 1.00

#	copyright 2023 drugdesign.org
#	Creation time:	2024-01-11T10:58:44Z

@<TRIPOS>MOLECULE
propanol_360.sd
   12    11     0 0 0
SMALL
USER_CHARGES


@<TRIPOS>ATOM
      1 H1            0.000000    0.000000    0.000000 H        1 SUBUNIT    0.2100
      2 C2            2.945200    1.441100   -0.000700 C.3      1 SUBUNIT   -0.0327
      3 C3            1.414900    1.350200    0.000000 C.3      1 SUBUNIT    0.0429
      4 O4            0.950000    0.000000    0.000000 O.3      1 SUBUNIT   -0.3962
      5 C5            3.480700    2.287100    1.160200 C.3      1 SUBUNIT   -0.0632
      6 H6            3.082900    3.319100    1.094400 H        1 SUBUNIT    0.0231
      7 H7            3.170900    1.845300    2.127900 H        1 SUBUNIT    0.0231
      8 H8            4.587300    2.327300    1.123200 H        1 SUBUNIT    0.0231
      9 H9            3.377400    0.422300    0.052600 H        1 SUBUNIT    0.0287
     10 H10           3.290900    1.869500   -0.962300 H        1 SUBUNIT    0.0287
     11 H11           1.011300    1.881500   -0.884600 H        1 SUBUNIT    0.0563
     12 H12           1.012200    1.881200    0.885100 H        1 SUBUNIT    0.0563
@<TRIPOS>BOND
     1    1    4 1
     2    2    5 1
     3    2    3 1
     4    2    9 1
     5    2   10 1
     6    3    4 1
     7    3   11 1
     8    3   12 1
     9    5    6 1
    10    5    7 1
    11    5    8 1
@<SCITEGIC>ATOM_PROPERTY
Formal Charge
SciTegic.value.StringValue
1 0
2 0
3 0
4 0
5 0
6 0
7 0
8 0
9 0
10 0
11 0
12 0

@<SCITEGIC>ATOM_PROPERTY
pdb_tempFactor
SciTegic.value.DoubleValue
1 0.00
2 0.00
3 0.00
4 0.00
5 0.00
6 0.00
7 0.00
8 0.00
9 0.00
10 0.00
11 0.00
12 0.00

@<SCITEGIC>ATOM_PROPERTY
pdb_occupancy
SciTegic.value.DoubleValue
1 1.00
2 1.00
3 1.00
4 1.00
5 1.00
6 1.00
7 1.00
8 1.00
9 1.00
10 1.00
11 1.00
12 1.00

#	copyright 2023 drugdesign.org
#	Creation time:	2024-01-11T10:58:44Z

@<TRIPOS>MOLECULE
propanol_360.sd
   12    11     0 0 0
SMALL
USER_CHARGES


@<TRIPOS>ATOM
      1 H1            0.000000    0.000000    0.000000 H        1 SUBUNIT    0.2100
      2 C2            2.945200    1.441100   -0.000700 C.3      1 SUBUNIT   -0.0327
      3 C3            1.414900    1.350200    0.000000 C.3      1 SUBUNIT    0.0429
      4 O4            0.950000    0.000000    0.000000 O.3      1 SUBUNIT   -0.3962
      5 C5            3.481900    2.266700    1.174200 C.3      1 SUBUNIT   -0.0632
      6 H6            3.084000    3.299800    1.126800 H        1 SUBUNIT    0.0231
      7 H7            3.173100    1.808100    2.134400 H        1 SUBUNIT    0.0231
      8 H8            4.588500    2.307600    1.136800 H        1 SUBUNIT    0.0231
      9 H9            3.377400    0.421500    0.034400 H        1 SUBUNIT    0.0287
     10 H10           3.289900    1.886200   -0.955000 H        1 SUBUNIT    0.0287
     11 H11           1.011300    1.881500   -0.884600 H        1 SUBUNIT    0.0563
     12 H12           1.012200    1.881200    0.885100 H        1 SUBUNIT    0.0563
@<TRIPOS>BOND
     1    1    4 1
     2    2    5 1
     3    2    3 1
     4    2    9 1
     5    2   10 1
     6    3    4 1
     7    3   11 1
     8    3   12 1
     9    5    6 1
    10    5    7 1
    11    5    8 1
@<SCITEGIC>ATOM_PROPERTY
Formal Charge
SciTegic.value.StringValue
1 0
2 0
3 0
4 0
5 0
6 0
7 0
8 0
9 0
10 0
11 0
12 0

@<SCITEGIC>ATOM_PROPERTY
pdb_tempFactor
SciTegic.value.DoubleValue
1 0.00
2 0.00
3 0.00
4 0.00
5 0.00
6 0.00
7 0.00
8 0.00
9 0.00
10 0.00
11 0.00
12 0.00

@<SCITEGIC>ATOM_PROPERTY
pdb_occupancy
SciTegic.value.DoubleValue
1 1.00
2 1.00
3 1.00
4 1.00
5 1.00
6 1.00
7 1.00
8 1.00
9 1.00
10 1.00
11 1.00
12 1.00

#	copyright 2023 drugdesign.org
#	Creation time:	2024-01-11T10:58:44Z

@<TRIPOS>MOLECULE
propanol_360.sd
   12    11     0 0 0
SMALL
USER_CHARGES


@<TRIPOS>ATOM
      1 H1            0.000000    0.000000    0.000000 H        1 SUBUNIT    0.2100
      2 C2            2.945200    1.441100   -0.000700 C.3      1 SUBUNIT   -0.0327
      3 C3            1.414900    1.350200    0.000000 C.3      1 SUBUNIT    0.0429
      4 O4            0.950000    0.000000    0.000000 O.3      1 SUBUNIT   -0.3962
      5 C5            3.483100    2.246200    1.187800 C.3      1 SUBUNIT   -0.0632
      6 H6            3.085200    3.279800    1.158900 H        1 SUBUNIT    0.0231
      7 H7            3.175300    1.770900    2.140200 H        1 SUBUNIT    0.0231
      8 H8            4.589700    2.287600    1.150000 H        1 SUBUNIT    0.0231
      9 H9            3.377400    0.421000    0.016200 H        1 SUBUNIT    0.0287
     10 H10           3.289000    1.902800   -0.947500 H        1 SUBUNIT    0.0287
     11 H11           1.011300    1.881500   -0.884600 H        1 SUBUNIT    0.0563
     12 H12           1.012200    1.881200    0.885100 H        1 SUBUNIT    0.0563
@<TRIPOS>BOND
     1    1    4 1
     2    2    5 1
     3    2    3 1
     4    2    9 1
     5    2   10 1
     6    3    4 1
     7    3   11 1
     8    3   12 1
     9    5    6 1
    10    5    7 1
    11    5    8 1
@<SCITEGIC>ATOM_PROPERTY
Formal Charge
SciTegic.value.StringValue
1 0
2 0
3 0
4 0
5 0
6 0
7 0
8 0
9 0
10 0
11 0
12 0

@<SCITEGIC>ATOM_PROPERTY
pdb_tempFactor
SciTegic.value.DoubleValue
1 0.00
2 0.00
3 0.00
4 0.00
5 0.00
6 0.00
7 0.00
8 0.00
9 0.00
10 0.00
11 0.00
12 0.00

@<SCITEGIC>ATOM_PROPERTY
pdb_occupancy
SciTegic.value.DoubleValue
1 1.00
2 1.00
3 1.00
4 1.00
5 1.00
6 1.00
7 1.00
8 1.00
9 1.00
10 1.00
11 1.00
12 1.00

#	copyright 2023 drugdesign.org
#	Creation time:	2024-01-11T10:58:44Z

@<TRIPOS>MOLECULE
propanol_360.sd
   12    11     0 0 0
SMALL
USER_CHARGES


@<TRIPOS>ATOM
      1 H1            0.000000    0.000000    0.000000 H        1 SUBUNIT    0.2100
      2 C2            2.945200    1.441100   -0.000700 C.3      1 SUBUNIT   -0.0327
      3 C3            1.414900    1.350200    0.000000 C.3      1 SUBUNIT    0.0429
      4 O4            0.950000    0.000000    0.000000 O.3      1 SUBUNIT   -0.3962
      5 C5            3.484400    2.225300    1.201100 C.3      1 SUBUNIT   -0.0632
      6 H6            3.086500    3.259400    1.190600 H        1 SUBUNIT    0.0231
      7 H7            3.177500    1.733500    2.145400 H        1 SUBUNIT    0.0231
      8 H8            4.590900    2.267500    1.162900 H        1 SUBUNIT    0.0231
      9 H9            3.377400    0.420900   -0.002000 H        1 SUBUNIT    0.0287
     10 H10           3.288000    1.919200   -0.939600 H        1 SUBUNIT    0.0287
     11 H11           1.011300    1.881500   -0.884600 H        1 SUBUNIT    0.0563
     12 H12           1.012200    1.881200    0.885100 H        1 SUBUNIT    0.0563
@<TRIPOS>BOND
     1    1    4 1
     2    2    5 1
     3    2    3 1
     4    2    9 1
     5    2   10 1
     6    3    4 1
     7    3   11 1
     8    3   12 1
     9    5    6 1
    10    5    7 1
    11    5    8 1
@<SCITEGIC>ATOM_PROPERTY
Formal Charge
SciTegic.value.StringValue
1 0
2 0
3 0
4 0
5 0
6 0
7 0
8 0
9 0
10 0
11 0
12 0

@<SCITEGIC>ATOM_PROPERTY
pdb_tempFactor
SciTegic.value.DoubleValue
1 0.00
2 0.00
3 0.00
4 0.00
5 0.00
6 0.00
7 0.00
8 0.00
9 0.00
10 0.00
11 0.00
12 0.00

@<SCITEGIC>ATOM_PROPERTY
pdb_occupancy
SciTegic.value.DoubleValue
1 1.00
2 1.00
3 1.00
4 1.00
5 1.00
6 1.00
7 1.00
8 1.00
9 1.00
10 1.00
11 1.00
12 1.00

#	copyright 2023 drugdesign.org
#	Creation time:	2024-01-11T10:58:44Z

@<TRIPOS>MOLECULE
propanol_360.sd
   12    11     0 0 0
SMALL
USER_CHARGES


@<TRIPOS>ATOM
      1 H1            0.000000    0.000000    0.000000 H        1 SUBUNIT    0.2100
      2 C2            2.945200    1.441100   -0.000700 C.3      1 SUBUNIT   -0.0327
      3 C3            1.414900    1.350200    0.000000 C.3      1 SUBUNIT    0.0429
      4 O4            0.950000    0.000000    0.000000 O.3      1 SUBUNIT   -0.3962
      5 C5            3.485600    2.204300    1.214000 C.3      1 SUBUNIT   -0.0632
      6 H6            3.087700    3.238300    1.221900 H        1 SUBUNIT    0.0231
      7 H7            3.179800    1.696100    2.149900 H        1 SUBUNIT    0.0231
      8 H8            4.592100    2.247100    1.175400 H        1 SUBUNIT    0.0231
      9 H9            3.377400    0.421100   -0.020300 H        1 SUBUNIT    0.0287
     10 H10           3.287000    1.935500   -0.931500 H        1 SUBUNIT    0.0287
     11 H11           1.011300    1.881500   -0.884600 H        1 SUBUNIT    0.0563
     12 H12           1.012200    1.881200    0.885100 H        1 SUBUNIT    0.0563
@<TRIPOS>BOND
     1    1    4 1
     2    2    5 1
     3    2    3 1
     4    2    9 1
     5    2   10 1
     6    3    4 1
     7    3   11 1
     8    3   12 1
     9    5    6 1
    10    5    7 1
    11    5    8 1
@<SCITEGIC>ATOM_PROPERTY
Formal Charge
SciTegic.value.StringValue
1 0
2 0
3 0
4 0
5 0
6 0
7 0
8 0
9 0
10 0
11 0
12 0

@<SCITEGIC>ATOM_PROPERTY
pdb_tempFactor
SciTegic.value.DoubleValue
1 0.00
2 0.00
3 0.00
4 0.00
5 0.00
6 0.00
7 0.00
8 0.00
9 0.00
10 0.00
11 0.00
12 0.00

@<SCITEGIC>ATOM_PROPERTY
pdb_occupancy
SciTegic.value.DoubleValue
1 1.00
2 1.00
3 1.00
4 1.00
5 1.00
6 1.00
7 1.00
8 1.00
9 1.00
10 1.00
11 1.00
12 1.00

#	copyright 2023 drugdesign.org
#	Creation time:	2024-01-11T10:58:44Z

@<TRIPOS>MOLECULE
propanol_360.sd
   12    11     0 0 0
SMALL
USER_CHARGES


@<TRIPOS>ATOM
      1 H1            0.000000    0.000000    0.000000 H        1 SUBUNIT    0.2100
      2 C2            2.945200    1.441100   -0.000700 C.3      1 SUBUNIT   -0.0327
      3 C3            1.414900    1.350200    0.000000 C.3      1 SUBUNIT    0.0429
      4 O4            0.950000    0.000000    0.000000 O.3      1 SUBUNIT   -0.3962
      5 C5            3.486900    2.183000    1.226600 C.3      1 SUBUNIT   -0.0632
      6 H6            3.089000    3.216800    1.252900 H        1 SUBUNIT    0.0231
      7 H7            3.182000    1.658600    2.153800 H        1 SUBUNIT    0.0231
      8 H8            4.593400    2.226500    1.187600 H        1 SUBUNIT    0.0231
      9 H9            3.377400    0.421600   -0.038500 H        1 SUBUNIT    0.0287
     10 H10           3.286100    1.951600   -0.923100 H        1 SUBUNIT    0.0287
     11 H11           1.011300    1.881500   -0.884600 H        1 SUBUNIT    0.0563
     12 H12           1.012200    1.881200    0.885100 H        1 SUBUNIT    0.0563
@<TRIPOS>BOND
     1    1    4 1
     2    2    5 1
     3    2    3 1
     4    2    9 1
     5    2   10 1
     6    3    4 1
     7    3   11 1
     8    3   12 1
     9    5    6 1
    10    5    7 1
    11    5    8 1
@<SCITEGIC>ATOM_PROPERTY
Formal Charge
SciTegic.value.StringValue
1 0
2 0
3 0
4 0
5 0
6 0
7 0
8 0
9 0
10 0
11 0
12 0

@<SCITEGIC>ATOM_PROPERTY
pdb_tempFactor
SciTegic.value.DoubleValue
1 0.00
2 0.00
3 0.00
4 0.00
5 0.00
6 0.00
7 0.00
8 0.00
9 0.00
10 0.00
11 0.00
12 0.00

@<SCITEGIC>ATOM_PROPERTY
pdb_occupancy
SciTegic.value.DoubleValue
1 1.00
2 1.00
3 1.00
4 1.00
5 1.00
6 1.00
7 1.00
8 1.00
9 1.00
10 1.00
11 1.00
12 1.00

#	copyright 2023 drugdesign.org
#	Creation time:	2024-01-11T10:58:44Z

@<TRIPOS>MOLECULE
propanol_360.sd
   12    11     0 0 0
SMALL
USER_CHARGES


@<TRIPOS>ATOM
      1 H1            0.000000    0.000000    0.000000 H        1 SUBUNIT    0.2100
      2 C2            2.945200    1.441100   -0.000700 C.3      1 SUBUNIT   -0.0327
      3 C3            1.414900    1.350200    0.000000 C.3      1 SUBUNIT    0.0429
      4 O4            0.950000    0.000000    0.000000 O.3      1 SUBUNIT   -0.3962
      5 C5            3.488200    2.161500    1.238700 C.3      1 SUBUNIT   -0.0632
      6 H6            3.090300    3.194600    1.283500 H        1 SUBUNIT    0.0231
      7 H7            3.184200    1.621000    2.157000 H        1 SUBUNIT    0.0231
      8 H8            4.594600    2.205600    1.199400 H        1 SUBUNIT    0.0231
      9 H9            3.377300    0.422400   -0.056700 H        1 SUBUNIT    0.0287
     10 H10           3.285100    1.967600   -0.914400 H        1 SUBUNIT    0.0287
     11 H11           1.011300    1.881500   -0.884600 H        1 SUBUNIT    0.0563
     12 H12           1.012200    1.881200    0.885100 H        1 SUBUNIT    0.0563
@<TRIPOS>BOND
     1    1    4 1
     2    2    5 1
     3    2    3 1
     4    2    9 1
     5    2   10 1
     6    3    4 1
     7    3   11 1
     8    3   12 1
     9    5    6 1
    10    5    7 1
    11    5    8 1
@<SCITEGIC>ATOM_PROPERTY
Formal Charge
SciTegic.value.StringValue
1 0
2 0
3 0
4 0
5 0
6 0
7 0
8 0
9 0
10 0
11 0
12 0

@<SCITEGIC>ATOM_PROPERTY
pdb_tempFactor
SciTegic.value.DoubleValue
1 0.00
2 0.00
3 0.00
4 0.00
5 0.00
6 0.00
7 0.00
8 0.00
9 0.00
10 0.00
11 0.00
12 0.00

@<SCITEGIC>ATOM_PROPERTY
pdb_occupancy
SciTegic.value.DoubleValue
1 1.00
2 1.00
3 1.00
4 1.00
5 1.00
6 1.00
7 1.00
8 1.00
9 1.00
10 1.00
11 1.00
12 1.00

#	copyright 2023 drugdesign.org
#	Creation time:	2024-01-11T10:58:44Z

@<TRIPOS>MOLECULE
propanol_360.sd
   12    11     0 0 0
SMALL
USER_CHARGES


@<TRIPOS>ATOM
      1 H1            0.000000    0.000000    0.000000 H        1 SUBUNIT    0.2100
      2 C2            2.945200    1.441100   -0.000700 C.3      1 SUBUNIT   -0.0327
      3 C3            1.414900    1.350200    0.000000 C.3      1 SUBUNIT    0.0429
      4 O4            0.950000    0.000000    0.000000 O.3      1 SUBUNIT   -0.3962
      5 C5            3.489500    2.139800    1.250500 C.3      1 SUBUNIT   -0.0632
      6 H6            3.091700    3.172000    1.313700 H        1 SUBUNIT    0.0231
      7 H7            3.186500    1.583400    2.159600 H        1 SUBUNIT    0.0231
      8 H8            4.595900    2.184600    1.210800 H        1 SUBUNIT    0.0231
      9 H9            3.377200    0.423500   -0.074900 H        1 SUBUNIT    0.0287
     10 H10           3.284200    1.983500   -0.905500 H        1 SUBUNIT    0.0287
     11 H11           1.011300    1.881500   -0.884600 H        1 SUBUNIT    0.0563
     12 H12           1.012200    1.881200    0.885100 H        1 SUBUNIT    0.0563
@<TRIPOS>BOND
     1    1    4 1
     2    2    5 1
     3    2    3 1
     4    2    9 1
     5    2   10 1
     6    3    4 1
     7    3   11 1
     8    3   12 1
     9    5    6 1
    10    5    7 1
    11    5    8 1
@<SCITEGIC>ATOM_PROPERTY
Formal Charge
SciTegic.value.StringValue
1 0
2 0
3 0
4 0
5 0
6 0
7 0
8 0
9 0
10 0
11 0
12 0

@<SCITEGIC>ATOM_PROPERTY
pdb_tempFactor
SciTegic.value.DoubleValue
1 0.00
2 0.00
3 0.00
4 0.00
5 0.00
6 0.00
7 0.00
8 0.00
9 0.00
10 0.00
11 0.00
12 0.00

@<SCITEGIC>ATOM_PROPERTY
pdb_occupancy
SciTegic.value.DoubleValue
1 1.00
2 1.00
3 1.00
4 1.00
5 1.00
6 1.00
7 1.00
8 1.00
9 1.00
10 1.00
11 1.00
12 1.00

#	copyright 2023 drugdesign.org
#	Creation time:	2024-01-11T10:58:44Z

@<TRIPOS>MOLECULE
propanol_360.sd
   12    11     0 0 0
SMALL
USER_CHARGES


@<TRIPOS>ATOM
      1 H1            0.000000    0.000000    0.000000 H        1 SUBUNIT    0.2100
      2 C2            2.945200    1.441100   -0.000700 C.3      1 SUBUNIT   -0.0327
      3 C3            1.414900    1.350200    0.000000 C.3      1 SUBUNIT    0.0429
      4 O4            0.950000    0.000000    0.000000 O.3      1 SUBUNIT   -0.3962
      5 C5            3.490800    2.117900    1.262000 C.3      1 SUBUNIT   -0.0632
      6 H6            3.093100    3.148800    1.343500 H        1 SUBUNIT    0.0231
      7 H7            3.188700    1.545800    2.161500 H        1 SUBUNIT    0.0231
      8 H8            4.597100    2.163400    1.221800 H        1 SUBUNIT    0.0231
      9 H9            3.377100    0.425000   -0.093000 H        1 SUBUNIT    0.0287
     10 H10           3.283300    1.999200   -0.896200 H        1 SUBUNIT    0.0287
     11 H11           1.011300    1.881500   -0.884600 H        1 SUBUNIT    0.0563
     12 H12           1.012200    1.881200    0.885100 H        1 SUBUNIT    0.0563
@<TRIPOS>BOND
     1    1    4 1
     2    2    5 1
     3    2    3 1
     4    2    9 1
     5    2   10 1
     6    3    4 1
     7    3   11 1
     8    3   12 1
     9    5    6 1
    10    5    7 1
    11    5    8 1
@<SCITEGIC>ATOM_PROPERTY
Formal Charge
SciTegic.value.StringValue
1 0
2 0
3 0
4 0
5 0
6 0
7 0
8 0
9 0
10 0
11 0
12 0

@<SCITEGIC>ATOM_PROPERTY
pdb_tempFactor
SciTegic.value.DoubleValue
1 0.00
2 0.00
3 0.00
4 0.00
5 0.00
6 0.00
7 0.00
8 0.00
9 0.00
10 0.00
11 0.00
12 0.00

@<SCITEGIC>ATOM_PROPERTY
pdb_occupancy
SciTegic.value.DoubleValue
1 1.00
2 1.00
3 1.00
4 1.00
5 1.00
6 1.00
7 1.00
8 1.00
9 1.00
10 1.00
11 1.00
12 1.00

#	copyright 2023 drugdesign.org
#	Creation time:	2024-01-11T10:58:44Z

@<TRIPOS>MOLECULE
propanol_360.sd
   12    11     0 0 0
SMALL
USER_CHARGES


@<TRIPOS>ATOM
      1 H1            0.000000    0.000000    0.000000 H        1 SUBUNIT    0.2100
      2 C2            2.945200    1.441100   -0.000700 C.3      1 SUBUNIT   -0.0327
      3 C3            1.414900    1.350200    0.000000 C.3      1 SUBUNIT    0.0429
      4 O4            0.950000    0.000000    0.000000 O.3      1 SUBUNIT   -0.3962
      5 C5            3.492100    2.095800    1.273000 C.3      1 SUBUNIT   -0.0632
      6 H6            3.094500    3.125200    1.372900 H        1 SUBUNIT    0.0231
      7 H7            3.190900    1.508100    2.162700 H        1 SUBUNIT    0.0231
      8 H8            4.598400    2.142000    1.232500 H        1 SUBUNIT    0.0231
      9 H9            3.377000    0.426700   -0.111200 H        1 SUBUNIT    0.0287
     10 H10           3.282300    2.014700   -0.886700 H        1 SUBUNIT    0.0287
     11 H11           1.011300    1.881500   -0.884600 H        1 SUBUNIT    0.0563
     12 H12           1.012200    1.881200    0.885100 H        1 SUBUNIT    0.0563
@<TRIPOS>BOND
     1    1    4 1
     2    2    5 1
     3    2    3 1
     4    2    9 1
     5    2   10 1
     6    3    4 1
     7    3   11 1
     8    3   12 1
     9    5    6 1
    10    5    7 1
    11    5    8 1
@<SCITEGIC>ATOM_PROPERTY
Formal Charge
SciTegic.value.StringValue
1 0
2 0
3 0
4 0
5 0
6 0
7 0
8 0
9 0
10 0
11 0
12 0

@<SCITEGIC>ATOM_PROPERTY
pdb_tempFactor
SciTegic.value.DoubleValue
1 0.00
2 0.00
3 0.00
4 0.00
5 0.00
6 0.00
7 0.00
8 0.00
9 0.00
10 0.00
11 0.00
12 0.00

@<SCITEGIC>ATOM_PROPERTY
pdb_occupancy
SciTegic.value.DoubleValue
1 1.00
2 1.00
3 1.00
4 1.00
5 1.00
6 1.00
7 1.00
8 1.00
9 1.00
10 1.00
11 1.00
12 1.00

#	copyright 2023 drugdesign.org
#	Creation time:	2024-01-11T10:58:44Z

@<TRIPOS>MOLECULE
propanol_360.sd
   12    11     0 0 0
SMALL
USER_CHARGES


@<TRIPOS>ATOM
      1 H1            0.000000    0.000000    0.000000 H        1 SUBUNIT    0.2100
      2 C2            2.945200    1.441100   -0.000700 C.3      1 SUBUNIT   -0.0327
      3 C3            1.414900    1.350200    0.000000 C.3      1 SUBUNIT    0.0429
      4 O4            0.950000    0.000000    0.000000 O.3      1 SUBUNIT   -0.3962
      5 C5            3.493400    2.073500    1.283600 C.3      1 SUBUNIT   -0.0632
      6 H6            3.096000    3.101000    1.401900 H        1 SUBUNIT    0.0231
      7 H7            3.193200    1.470400    2.163300 H        1 SUBUNIT    0.0231
      8 H8            4.599700    2.120400    1.242800 H        1 SUBUNIT    0.0231
      9 H9            3.376900    0.428800   -0.129300 H        1 SUBUNIT    0.0287
     10 H10           3.281400    2.030000   -0.876900 H        1 SUBUNIT    0.0287
     11 H11           1.011300    1.881500   -0.884600 H        1 SUBUNIT    0.0563
     12 H12           1.012200    1.881200    0.885100 H        1 SUBUNIT    0.0563
@<TRIPOS>BOND
     1    1    4 1
     2    2    5 1
     3    2    3 1
     4    2    9 1
     5    2   10 1
     6    3    4 1
     7    3   11 1
     8    3   12 1
     9    5    6 1
    10    5    7 1
    11    5    8 1
@<SCITEGIC>ATOM_PROPERTY
Formal Charge
SciTegic.value.StringValue
1 0
2 0
3 0
4 0
5 0
6 0
7 0
8 0
9 0
10 0
11 0
12 0

@<SCITEGIC>ATOM_PROPERTY
pdb_tempFactor
SciTegic.value.DoubleValue
1 0.00
2 0.00
3 0.00
4 0.00
5 0.00
6 0.00
7 0.00
8 0.00
9 0.00
10 0.00
11 0.00
12 0.00

@<SCITEGIC>ATOM_PROPERTY
pdb_occupancy
SciTegic.value.DoubleValue
1 1.00
2 1.00
3 1.00
4 1.00
5 1.00
6 1.00
7 1.00
8 1.00
9 1.00
10 1.00
11 1.00
12 1.00

#	copyright 2023 drugdesign.org
#	Creation time:	2024-01-11T10:58:44Z

@<TRIPOS>MOLECULE
propanol_360.sd
   12    11     0 0 0
SMALL
USER_CHARGES


@<TRIPOS>ATOM
      1 H1            0.000000    0.000000    0.000000 H        1 SUBUNIT    0.2100
      2 C2            2.945200    1.441100   -0.000700 C.3      1 SUBUNIT   -0.0327
      3 C3            1.414900    1.350200    0.000000 C.3      1 SUBUNIT    0.0429
      4 O4            0.950000    0.000000    0.000000 O.3      1 SUBUNIT   -0.3962
      5 C5            3.494800    2.051000    1.293900 C.3      1 SUBUNIT   -0.0632
      6 H6            3.097400    3.076300    1.430400 H        1 SUBUNIT    0.0231
      7 H7            3.195400    1.432700    2.163200 H        1 SUBUNIT    0.0231
      8 H8            4.601000    2.098600    1.252800 H        1 SUBUNIT    0.0231
      9 H9            3.376800    0.431200   -0.147300 H        1 SUBUNIT    0.0287
     10 H10           3.280500    2.045200   -0.866900 H        1 SUBUNIT    0.0287
     11 H11           1.011300    1.881500   -0.884600 H        1 SUBUNIT    0.0563
     12 H12           1.012200    1.881200    0.885100 H        1 SUBUNIT    0.0563
@<TRIPOS>BOND
     1    1    4 1
     2    2    5 1
     3    2    3 1
     4    2    9 1
     5    2   10 1
     6    3    4 1
     7    3   11 1
     8    3   12 1
     9    5    6 1
    10    5    7 1
    11    5    8 1
@<SCITEGIC>ATOM_PROPERTY
Formal Charge
SciTegic.value.StringValue
1 0
2 0
3 0
4 0
5 0
6 0
7 0
8 0
9 0
10 0
11 0
12 0

@<SCITEGIC>ATOM_PROPERTY
pdb_tempFactor
SciTegic.value.DoubleValue
1 0.00
2 0.00
3 0.00
4 0.00
5 0.00
6 0.00
7 0.00
8 0.00
9 0.00
10 0.00
11 0.00
12 0.00

@<SCITEGIC>ATOM_PROPERTY
pdb_occupancy
SciTegic.value.DoubleValue
1 1.00
2 1.00
3 1.00
4 1.00
5 1.00
6 1.00
7 1.00
8 1.00
9 1.00
10 1.00
11 1.00
12 1.00

#	copyright 2023 drugdesign.org
#	Creation time:	2024-01-11T10:58:44Z

@<TRIPOS>MOLECULE
propanol_360.sd
   12    11     0 0 0
SMALL
USER_CHARGES


@<TRIPOS>ATOM
      1 H1            0.000000    0.000000    0.000000 H        1 SUBUNIT    0.2100
      2 C2            2.945200    1.441100   -0.000700 C.3      1 SUBUNIT   -0.0327
      3 C3            1.414900    1.350200    0.000000 C.3      1 SUBUNIT    0.0429
      4 O4            0.950000    0.000000    0.000000 O.3      1 SUBUNIT   -0.3962
      5 C5            3.496100    2.028400    1.303800 C.3      1 SUBUNIT   -0.0632
      6 H6            3.098900    3.051100    1.458600 H        1 SUBUNIT    0.0231
      7 H7            3.197700    1.395000    2.162500 H        1 SUBUNIT    0.0231
      8 H8            4.602300    2.076700    1.262300 H        1 SUBUNIT    0.0231
      9 H9            3.376600    0.433900   -0.165400 H        1 SUBUNIT    0.0287
     10 H10           3.279700    2.060200   -0.856600 H        1 SUBUNIT    0.0287
     11 H11           1.011300    1.881500   -0.884600 H        1 SUBUNIT    0.0563
     12 H12           1.012200    1.881200    0.885100 H        1 SUBUNIT    0.0563
@<TRIPOS>BOND
     1    1    4 1
     2    2    5 1
     3    2    3 1
     4    2    9 1
     5    2   10 1
     6    3    4 1
     7    3   11 1
     8    3   12 1
     9    5    6 1
    10    5    7 1
    11    5    8 1
@<SCITEGIC>ATOM_PROPERTY
Formal Charge
SciTegic.value.StringValue
1 0
2 0
3 0
4 0
5 0
6 0
7 0
8 0
9 0
10 0
11 0
12 0

@<SCITEGIC>ATOM_PROPERTY
pdb_tempFactor
SciTegic.value.DoubleValue
1 0.00
2 0.00
3 0.00
4 0.00
5 0.00
6 0.00
7 0.00
8 0.00
9 0.00
10 0.00
11 0.00
12 0.00

@<SCITEGIC>ATOM_PROPERTY
pdb_occupancy
SciTegic.value.DoubleValue
1 1.00
2 1.00
3 1.00
4 1.00
5 1.00
6 1.00
7 1.00
8 1.00
9 1.00
10 1.00
11 1.00
12 1.00

#	copyright 2023 drugdesign.org
#	Creation time:	2024-01-11T10:58:44Z

@<TRIPOS>MOLECULE
propanol_360.sd
   12    11     0 0 0
SMALL
USER_CHARGES


@<TRIPOS>ATOM
      1 H1            0.000000    0.000000    0.000000 H        1 SUBUNIT    0.2100
      2 C2            2.945200    1.441100   -0.000700 C.3      1 SUBUNIT   -0.0327
      3 C3            1.414900    1.350200    0.000000 C.3      1 SUBUNIT    0.0429
      4 O4            0.950000    0.000000    0.000000 O.3      1 SUBUNIT   -0.3962
      5 C5            3.497500    2.005600    1.313200 C.3      1 SUBUNIT   -0.0632
      6 H6            3.100500    3.025500    1.486200 H        1 SUBUNIT    0.0231
      7 H7            3.199900    1.357300    2.161100 H        1 SUBUNIT    0.0231
      8 H8            4.603600    2.054600    1.271500 H        1 SUBUNIT    0.0231
      9 H9            3.376400    0.436900   -0.183300 H        1 SUBUNIT    0.0287
     10 H10           3.278800    2.075000   -0.846000 H        1 SUBUNIT    0.0287
     11 H11           1.011300    1.881500   -0.884600 H        1 SUBUNIT    0.0563
     12 H12           1.012200    1.881200    0.885100 H        1 SUBUNIT    0.0563
@<TRIPOS>BOND
     1    1    4 1
     2    2    5 1
     3    2    3 1
     4    2    9 1
     5    2   10 1
     6    3    4 1
     7    3   11 1
     8    3   12 1
     9    5    6 1
    10    5    7 1
    11    5    8 1
@<SCITEGIC>ATOM_PROPERTY
Formal Charge
SciTegic.value.StringValue
1 0
2 0
3 0
4 0
5 0
6 0
7 0
8 0
9 0
10 0
11 0
12 0

@<SCITEGIC>ATOM_PROPERTY
pdb_tempFactor
SciTegic.value.DoubleValue
1 0.00
2 0.00
3 0.00
4 0.00
5 0.00
6 0.00
7 0.00
8 0.00
9 0.00
10 0.00
11 0.00
12 0.00

@<SCITEGIC>ATOM_PROPERTY
pdb_occupancy
SciTegic.value.DoubleValue
1 1.00
2 1.00
3 1.00
4 1.00
5 1.00
6 1.00
7 1.00
8 1.00
9 1.00
10 1.00
11 1.00
12 1.00

#	copyright 2023 drugdesign.org
#	Creation time:	2024-01-11T10:58:44Z

@<TRIPOS>MOLECULE
propanol_360.sd
   12    11     0 0 0
SMALL
USER_CHARGES


@<TRIPOS>ATOM
      1 H1            0.000000    0.000000    0.000000 H        1 SUBUNIT    0.2100
      2 C2            2.945200    1.441100   -0.000700 C.3      1 SUBUNIT   -0.0327
      3 C3            1.414900    1.350200    0.000000 C.3      1 SUBUNIT    0.0429
      4 O4            0.950000    0.000000    0.000000 O.3      1 SUBUNIT   -0.3962
      5 C5            3.498900    1.982600    1.322300 C.3      1 SUBUNIT   -0.0632
      6 H6            3.102100    2.999300    1.513400 H        1 SUBUNIT    0.0231
      7 H7            3.202100    1.319600    2.159000 H        1 SUBUNIT    0.0231
      8 H8            4.604900    2.032400    1.280300 H        1 SUBUNIT    0.0231
      9 H9            3.376200    0.440300   -0.201200 H        1 SUBUNIT    0.0287
     10 H10           3.277900    2.089600   -0.835200 H        1 SUBUNIT    0.0287
     11 H11           1.011300    1.881500   -0.884600 H        1 SUBUNIT    0.0563
     12 H12           1.012200    1.881200    0.885100 H        1 SUBUNIT    0.0563
@<TRIPOS>BOND
     1    1    4 1
     2    2    5 1
     3    2    3 1
     4    2    9 1
     5    2   10 1
     6    3    4 1
     7    3   11 1
     8    3   12 1
     9    5    6 1
    10    5    7 1
    11    5    8 1
@<SCITEGIC>ATOM_PROPERTY
Formal Charge
SciTegic.value.StringValue
1 0
2 0
3 0
4 0
5 0
6 0
7 0
8 0
9 0
10 0
11 0
12 0

@<SCITEGIC>ATOM_PROPERTY
pdb_tempFactor
SciTegic.value.DoubleValue
1 0.00
2 0.00
3 0.00
4 0.00
5 0.00
6 0.00
7 0.00
8 0.00
9 0.00
10 0.00
11 0.00
12 0.00

@<SCITEGIC>ATOM_PROPERTY
pdb_occupancy
SciTegic.value.DoubleValue
1 1.00
2 1.00
3 1.00
4 1.00
5 1.00
6 1.00
7 1.00
8 1.00
9 1.00
10 1.00
11 1.00
12 1.00

#	copyright 2023 drugdesign.org
#	Creation time:	2024-01-11T10:58:44Z

@<TRIPOS>MOLECULE
propanol_360.sd
   12    11     0 0 0
SMALL
USER_CHARGES


@<TRIPOS>ATOM
      1 H1            0.000000    0.000000    0.000000 H        1 SUBUNIT    0.2100
      2 C2            2.945200    1.441100   -0.000700 C.3      1 SUBUNIT   -0.0327
      3 C3            1.414900    1.350200    0.000000 C.3      1 SUBUNIT    0.0429
      4 O4            0.950000    0.000000    0.000000 O.3      1 SUBUNIT   -0.3962
      5 C5            3.500200    1.959500    1.330900 C.3      1 SUBUNIT   -0.0632
      6 H6            3.103600    2.972700    1.540200 H        1 SUBUNIT    0.0231
      7 H7            3.204400    1.282000    2.156300 H        1 SUBUNIT    0.0231
      8 H8            4.606300    2.010000    1.288700 H        1 SUBUNIT    0.0231
      9 H9            3.376000    0.443900   -0.219100 H        1 SUBUNIT    0.0287
     10 H10           3.277100    2.104100   -0.824100 H        1 SUBUNIT    0.0287
     11 H11           1.011300    1.881500   -0.884600 H        1 SUBUNIT    0.0563
     12 H12           1.012200    1.881200    0.885100 H        1 SUBUNIT    0.0563
@<TRIPOS>BOND
     1    1    4 1
     2    2    5 1
     3    2    3 1
     4    2    9 1
     5    2   10 1
     6    3    4 1
     7    3   11 1
     8    3   12 1
     9    5    6 1
    10    5    7 1
    11    5    8 1
@<SCITEGIC>ATOM_PROPERTY
Formal Charge
SciTegic.value.StringValue
1 0
2 0
3 0
4 0
5 0
6 0
7 0
8 0
9 0
10 0
11 0
12 0

@<SCITEGIC>ATOM_PROPERTY
pdb_tempFactor
SciTegic.value.DoubleValue
1 0.00
2 0.00
3 0.00
4 0.00
5 0.00
6 0.00
7 0.00
8 0.00
9 0.00
10 0.00
11 0.00
12 0.00

@<SCITEGIC>ATOM_PROPERTY
pdb_occupancy
SciTegic.value.DoubleValue
1 1.00
2 1.00
3 1.00
4 1.00
5 1.00
6 1.00
7 1.00
8 1.00
9 1.00
10 1.00
11 1.00
12 1.00

#	copyright 2023 drugdesign.org
#	Creation time:	2024-01-11T10:58:44Z

@<TRIPOS>MOLECULE
propanol_360.sd
   12    11     0 0 0
SMALL
USER_CHARGES


@<TRIPOS>ATOM
      1 H1            0.000000    0.000000    0.000000 H        1 SUBUNIT    0.2100
      2 C2            2.945200    1.441100   -0.000700 C.3      1 SUBUNIT   -0.0327
      3 C3            1.414900    1.350200    0.000000 C.3      1 SUBUNIT    0.0429
      4 O4            0.950000    0.000000    0.000000 O.3      1 SUBUNIT   -0.3962
      5 C5            3.501600    1.936200    1.339200 C.3      1 SUBUNIT   -0.0632
      6 H6            3.105300    2.945600    1.566500 H        1 SUBUNIT    0.0231
      7 H7            3.206600    1.244500    2.152900 H        1 SUBUNIT    0.0231
      8 H8            4.607600    1.987400    1.296600 H        1 SUBUNIT    0.0231
      9 H9            3.375700    0.447900   -0.236900 H        1 SUBUNIT    0.0287
     10 H10           3.276200    2.118300   -0.812800 H        1 SUBUNIT    0.0287
     11 H11           1.011300    1.881500   -0.884600 H        1 SUBUNIT    0.0563
     12 H12           1.012200    1.881200    0.885100 H        1 SUBUNIT    0.0563
@<TRIPOS>BOND
     1    1    4 1
     2    2    5 1
     3    2    3 1
     4    2    9 1
     5    2   10 1
     6    3    4 1
     7    3   11 1
     8    3   12 1
     9    5    6 1
    10    5    7 1
    11    5    8 1
@<SCITEGIC>ATOM_PROPERTY
Formal Charge
SciTegic.value.StringValue
1 0
2 0
3 0
4 0
5 0
6 0
7 0
8 0
9 0
10 0
11 0
12 0

@<SCITEGIC>ATOM_PROPERTY
pdb_tempFactor
SciTegic.value.DoubleValue
1 0.00
2 0.00
3 0.00
4 0.00
5 0.00
6 0.00
7 0.00
8 0.00
9 0.00
10 0.00
11 0.00
12 0.00

@<SCITEGIC>ATOM_PROPERTY
pdb_occupancy
SciTegic.value.DoubleValue
1 1.00
2 1.00
3 1.00
4 1.00
5 1.00
6 1.00
7 1.00
8 1.00
9 1.00
10 1.00
11 1.00
12 1.00

#	copyright 2023 drugdesign.org
#	Creation time:	2024-01-11T10:58:44Z

@<TRIPOS>MOLECULE
propanol_360.sd
   12    11     0 0 0
SMALL
USER_CHARGES


@<TRIPOS>ATOM
      1 H1            0.000000    0.000000    0.000000 H        1 SUBUNIT    0.2100
      2 C2            2.945200    1.441100   -0.000700 C.3      1 SUBUNIT   -0.0327
      3 C3            1.414900    1.350200    0.000000 C.3      1 SUBUNIT    0.0429
      4 O4            0.950000    0.000000    0.000000 O.3      1 SUBUNIT   -0.3962
      5 C5            3.503000    1.912800    1.347000 C.3      1 SUBUNIT   -0.0632
      6 H6            3.106900    2.918100    1.592300 H        1 SUBUNIT    0.0231
      7 H7            3.208800    1.207000    2.148900 H        1 SUBUNIT    0.0231
      8 H8            4.609000    1.964700    1.304200 H        1 SUBUNIT    0.0231
      9 H9            3.375500    0.452100   -0.254600 H        1 SUBUNIT    0.0287
     10 H10           3.275400    2.132400   -0.801200 H        1 SUBUNIT    0.0287
     11 H11           1.011300    1.881500   -0.884600 H        1 SUBUNIT    0.0563
     12 H12           1.012200    1.881200    0.885100 H        1 SUBUNIT    0.0563
@<TRIPOS>BOND
     1    1    4 1
     2    2    5 1
     3    2    3 1
     4    2    9 1
     5    2   10 1
     6    3    4 1
     7    3   11 1
     8    3   12 1
     9    5    6 1
    10    5    7 1
    11    5    8 1
@<SCITEGIC>ATOM_PROPERTY
Formal Charge
SciTegic.value.StringValue
1 0
2 0
3 0
4 0
5 0
6 0
7 0
8 0
9 0
10 0
11 0
12 0

@<SCITEGIC>ATOM_PROPERTY
pdb_tempFactor
SciTegic.value.DoubleValue
1 0.00
2 0.00
3 0.00
4 0.00
5 0.00
6 0.00
7 0.00
8 0.00
9 0.00
10 0.00
11 0.00
12 0.00

@<SCITEGIC>ATOM_PROPERTY
pdb_occupancy
SciTegic.value.DoubleValue
1 1.00
2 1.00
3 1.00
4 1.00
5 1.00
6 1.00
7 1.00
8 1.00
9 1.00
10 1.00
11 1.00
12 1.00

#	copyright 2023 drugdesign.org
#	Creation time:	2024-01-11T10:58:44Z

@<TRIPOS>MOLECULE
propanol_360.sd
   12    11     0 0 0
SMALL
USER_CHARGES


@<TRIPOS>ATOM
      1 H1            0.000000    0.000000    0.000000 H        1 SUBUNIT    0.2100
      2 C2            2.945200    1.441100   -0.000700 C.3      1 SUBUNIT   -0.0327
      3 C3            1.414900    1.350200    0.000000 C.3      1 SUBUNIT    0.0429
      4 O4            0.950000    0.000000    0.000000 O.3      1 SUBUNIT   -0.3962
      5 C5            3.504400    1.889200    1.354500 C.3      1 SUBUNIT   -0.0632
      6 H6            3.108600    2.890100    1.617600 H        1 SUBUNIT    0.0231
      7 H7            3.211000    1.169600    2.144200 H        1 SUBUNIT    0.0231
      8 H8            4.610300    1.941900    1.311400 H        1 SUBUNIT    0.0231
      9 H9            3.375200    0.456700   -0.272200 H        1 SUBUNIT    0.0287
     10 H10           3.274600    2.146200   -0.789400 H        1 SUBUNIT    0.0287
     11 H11           1.011300    1.881500   -0.884600 H        1 SUBUNIT    0.0563
     12 H12           1.012200    1.881200    0.885100 H        1 SUBUNIT    0.0563
@<TRIPOS>BOND
     1    1    4 1
     2    2    5 1
     3    2    3 1
     4    2    9 1
     5    2   10 1
     6    3    4 1
     7    3   11 1
     8    3   12 1
     9    5    6 1
    10    5    7 1
    11    5    8 1
@<SCITEGIC>ATOM_PROPERTY
Formal Charge
SciTegic.value.StringValue
1 0
2 0
3 0
4 0
5 0
6 0
7 0
8 0
9 0
10 0
11 0
12 0

@<SCITEGIC>ATOM_PROPERTY
pdb_tempFactor
SciTegic.value.DoubleValue
1 0.00
2 0.00
3 0.00
4 0.00
5 0.00
6 0.00
7 0.00
8 0.00
9 0.00
10 0.00
11 0.00
12 0.00

@<SCITEGIC>ATOM_PROPERTY
pdb_occupancy
SciTegic.value.DoubleValue
1 1.00
2 1.00
3 1.00
4 1.00
5 1.00
6 1.00
7 1.00
8 1.00
9 1.00
10 1.00
11 1.00
12 1.00

#	copyright 2023 drugdesign.org
#	Creation time:	2024-01-11T10:58:44Z

@<TRIPOS>MOLECULE
propanol_360.sd
   12    11     0 0 0
SMALL
USER_CHARGES


@<TRIPOS>ATOM
      1 H1            0.000000    0.000000    0.000000 H        1 SUBUNIT    0.2100
      2 C2            2.945200    1.441100   -0.000700 C.3      1 SUBUNIT   -0.0327
      3 C3            1.414900    1.350200    0.000000 C.3      1 SUBUNIT    0.0429
      4 O4            0.950000    0.000000    0.000000 O.3      1 SUBUNIT   -0.3962
      5 C5            3.505800    1.865600    1.361500 C.3      1 SUBUNIT   -0.0632
      6 H6            3.110300    2.861700    1.642400 H        1 SUBUNIT    0.0231
      7 H7            3.213300    1.132300    2.138900 H        1 SUBUNIT    0.0231
      8 H8            4.611700    1.919000    1.318200 H        1 SUBUNIT    0.0231
      9 H9            3.374900    0.461600   -0.289800 H        1 SUBUNIT    0.0287
     10 H10           3.273800    2.159800   -0.777300 H        1 SUBUNIT    0.0287
     11 H11           1.011300    1.881500   -0.884600 H        1 SUBUNIT    0.0563
     12 H12           1.012200    1.881200    0.885100 H        1 SUBUNIT    0.0563
@<TRIPOS>BOND
     1    1    4 1
     2    2    5 1
     3    2    3 1
     4    2    9 1
     5    2   10 1
     6    3    4 1
     7    3   11 1
     8    3   12 1
     9    5    6 1
    10    5    7 1
    11    5    8 1
@<SCITEGIC>ATOM_PROPERTY
Formal Charge
SciTegic.value.StringValue
1 0
2 0
3 0
4 0
5 0
6 0
7 0
8 0
9 0
10 0
11 0
12 0

@<SCITEGIC>ATOM_PROPERTY
pdb_tempFactor
SciTegic.value.DoubleValue
1 0.00
2 0.00
3 0.00
4 0.00
5 0.00
6 0.00
7 0.00
8 0.00
9 0.00
10 0.00
11 0.00
12 0.00

@<SCITEGIC>ATOM_PROPERTY
pdb_occupancy
SciTegic.value.DoubleValue
1 1.00
2 1.00
3 1.00
4 1.00
5 1.00
6 1.00
7 1.00
8 1.00
9 1.00
10 1.00
11 1.00
12 1.00

#	copyright 2023 drugdesign.org
#	Creation time:	2024-01-11T10:58:44Z

@<TRIPOS>MOLECULE
propanol_360.sd
   12    11     0 0 0
SMALL
USER_CHARGES


@<TRIPOS>ATOM
      1 H1            0.000000    0.000000    0.000000 H        1 SUBUNIT    0.2100
      2 C2            2.945200    1.441100   -0.000700 C.3      1 SUBUNIT   -0.0327
      3 C3            1.414900    1.350200    0.000000 C.3      1 SUBUNIT    0.0429
      4 O4            0.950000    0.000000    0.000000 O.3      1 SUBUNIT   -0.3962
      5 C5            3.507200    1.841800    1.368100 C.3      1 SUBUNIT   -0.0632
      6 H6            3.112000    2.832900    1.666800 H        1 SUBUNIT    0.0231
      7 H7            3.215500    1.095000    2.132900 H        1 SUBUNIT    0.0231
      8 H8            4.613100    1.895900    1.324600 H        1 SUBUNIT    0.0231
      9 H9            3.374600    0.466800   -0.307200 H        1 SUBUNIT    0.0287
     10 H10           3.273000    2.173300   -0.765000 H        1 SUBUNIT    0.0287
     11 H11           1.011300    1.881500   -0.884600 H        1 SUBUNIT    0.0563
     12 H12           1.012200    1.881200    0.885100 H        1 SUBUNIT    0.0563
@<TRIPOS>BOND
     1    1    4 1
     2    2    5 1
     3    2    3 1
     4    2    9 1
     5    2   10 1
     6    3    4 1
     7    3   11 1
     8    3   12 1
     9    5    6 1
    10    5    7 1
    11    5    8 1
@<SCITEGIC>ATOM_PROPERTY
Formal Charge
SciTegic.value.StringValue
1 0
2 0
3 0
4 0
5 0
6 0
7 0
8 0
9 0
10 0
11 0
12 0

@<SCITEGIC>ATOM_PROPERTY
pdb_tempFactor
SciTegic.value.DoubleValue
1 0.00
2 0.00
3 0.00
4 0.00
5 0.00
6 0.00
7 0.00
8 0.00
9 0.00
10 0.00
11 0.00
12 0.00

@<SCITEGIC>ATOM_PROPERTY
pdb_occupancy
SciTegic.value.DoubleValue
1 1.00
2 1.00
3 1.00
4 1.00
5 1.00
6 1.00
7 1.00
8 1.00
9 1.00
10 1.00
11 1.00
12 1.00

#	copyright 2023 drugdesign.org
#	Creation time:	2024-01-11T10:58:44Z

@<TRIPOS>MOLECULE
propanol_360.sd
   12    11     0 0 0
SMALL
USER_CHARGES


@<TRIPOS>ATOM
      1 H1            0.000000    0.000000    0.000000 H        1 SUBUNIT    0.2100
      2 C2            2.945200    1.441100   -0.000700 C.3      1 SUBUNIT   -0.0327
      3 C3            1.414900    1.350200    0.000000 C.3      1 SUBUNIT    0.0429
      4 O4            0.950000    0.000000    0.000000 O.3      1 SUBUNIT   -0.3962
      5 C5            3.508700    1.817800    1.374300 C.3      1 SUBUNIT   -0.0632
      6 H6            3.113800    2.803600    1.690600 H        1 SUBUNIT    0.0231
      7 H7            3.217700    1.057900    2.126300 H        1 SUBUNIT    0.0231
      8 H8            4.614400    1.872800    1.330600 H        1 SUBUNIT    0.0231
      9 H9            3.374200    0.472300   -0.324600 H        1 SUBUNIT    0.0287
     10 H10           3.272200    2.186500   -0.752500 H        1 SUBUNIT    0.0287
     11 H11           1.011300    1.881500   -0.884600 H        1 SUBUNIT    0.0563
     12 H12           1.012200    1.881200    0.885100 H        1 SUBUNIT    0.0563
@<TRIPOS>BOND
     1    1    4 1
     2    2    5 1
     3    2    3 1
     4    2    9 1
     5    2   10 1
     6    3    4 1
     7    3   11 1
     8    3   12 1
     9    5    6 1
    10    5    7 1
    11    5    8 1
@<SCITEGIC>ATOM_PROPERTY
Formal Charge
SciTegic.value.StringValue
1 0
2 0
3 0
4 0
5 0
6 0
7 0
8 0
9 0
10 0
11 0
12 0

@<SCITEGIC>ATOM_PROPERTY
pdb_tempFactor
SciTegic.value.DoubleValue
1 0.00
2 0.00
3 0.00
4 0.00
5 0.00
6 0.00
7 0.00
8 0.00
9 0.00
10 0.00
11 0.00
12 0.00

@<SCITEGIC>ATOM_PROPERTY
pdb_occupancy
SciTegic.value.DoubleValue
1 1.00
2 1.00
3 1.00
4 1.00
5 1.00
6 1.00
7 1.00
8 1.00
9 1.00
10 1.00
11 1.00
12 1.00

#	copyright 2023 drugdesign.org
#	Creation time:	2024-01-11T10:58:44Z

@<TRIPOS>MOLECULE
propanol_360.sd
   12    11     0 0 0
SMALL
USER_CHARGES


@<TRIPOS>ATOM
      1 H1            0.000000    0.000000    0.000000 H        1 SUBUNIT    0.2100
      2 C2            2.945200    1.441100   -0.000700 C.3      1 SUBUNIT   -0.0327
      3 C3            1.414900    1.350200    0.000000 C.3      1 SUBUNIT    0.0429
      4 O4            0.950000    0.000000    0.000000 O.3      1 SUBUNIT   -0.3962
      5 C5            3.510100    1.793800    1.380100 C.3      1 SUBUNIT   -0.0632
      6 H6            3.115500    2.773900    1.713900 H        1 SUBUNIT    0.0231
      7 H7            3.219900    1.020900    2.119000 H        1 SUBUNIT    0.0231
      8 H8            4.615800    1.849500    1.336200 H        1 SUBUNIT    0.0231
      9 H9            3.373900    0.478100   -0.341900 H        1 SUBUNIT    0.0287
     10 H10           3.271400    2.199500   -0.739700 H        1 SUBUNIT    0.0287
     11 H11           1.011300    1.881500   -0.884600 H        1 SUBUNIT    0.0563
     12 H12           1.012200    1.881200    0.885100 H        1 SUBUNIT    0.0563
@<TRIPOS>BOND
     1    1    4 1
     2    2    5 1
     3    2    3 1
     4    2    9 1
     5    2   10 1
     6    3    4 1
     7    3   11 1
     8    3   12 1
     9    5    6 1
    10    5    7 1
    11    5    8 1
@<SCITEGIC>ATOM_PROPERTY
Formal Charge
SciTegic.value.StringValue
1 0
2 0
3 0
4 0
5 0
6 0
7 0
8 0
9 0
10 0
11 0
12 0

@<SCITEGIC>ATOM_PROPERTY
pdb_tempFactor
SciTegic.value.DoubleValue
1 0.00
2 0.00
3 0.00
4 0.00
5 0.00
6 0.00
7 0.00
8 0.00
9 0.00
10 0.00
11 0.00
12 0.00

@<SCITEGIC>ATOM_PROPERTY
pdb_occupancy
SciTegic.value.DoubleValue
1 1.00
2 1.00
3 1.00
4 1.00
5 1.00
6 1.00
7 1.00
8 1.00
9 1.00
10 1.00
11 1.00
12 1.00

#	copyright 2023 drugdesign.org
#	Creation time:	2024-01-11T10:58:44Z

@<TRIPOS>MOLECULE
propanol_360.sd
   12    11     0 0 0
SMALL
USER_CHARGES


@<TRIPOS>ATOM
      1 H1            0.000000    0.000000    0.000000 H        1 SUBUNIT    0.2100
      2 C2            2.945200    1.441100   -0.000700 C.3      1 SUBUNIT   -0.0327
      3 C3            1.414900    1.350200    0.000000 C.3      1 SUBUNIT    0.0429
      4 O4            0.950000    0.000000    0.000000 O.3      1 SUBUNIT   -0.3962
      5 C5            3.511500    1.769700    1.385400 C.3      1 SUBUNIT   -0.0632
      6 H6            3.117300    2.743900    1.736700 H        1 SUBUNIT    0.0231
      7 H7            3.222000    0.984100    2.111100 H        1 SUBUNIT    0.0231
      8 H8            4.617200    1.826200    1.341400 H        1 SUBUNIT    0.0231
      9 H9            3.373500    0.484100   -0.359100 H        1 SUBUNIT    0.0287
     10 H10           3.270700    2.212200   -0.726700 H        1 SUBUNIT    0.0287
     11 H11           1.011300    1.881500   -0.884600 H        1 SUBUNIT    0.0563
     12 H12           1.012200    1.881200    0.885100 H        1 SUBUNIT    0.0563
@<TRIPOS>BOND
     1    1    4 1
     2    2    5 1
     3    2    3 1
     4    2    9 1
     5    2   10 1
     6    3    4 1
     7    3   11 1
     8    3   12 1
     9    5    6 1
    10    5    7 1
    11    5    8 1
@<SCITEGIC>ATOM_PROPERTY
Formal Charge
SciTegic.value.StringValue
1 0
2 0
3 0
4 0
5 0
6 0
7 0
8 0
9 0
10 0
11 0
12 0

@<SCITEGIC>ATOM_PROPERTY
pdb_tempFactor
SciTegic.value.DoubleValue
1 0.00
2 0.00
3 0.00
4 0.00
5 0.00
6 0.00
7 0.00
8 0.00
9 0.00
10 0.00
11 0.00
12 0.00

@<SCITEGIC>ATOM_PROPERTY
pdb_occupancy
SciTegic.value.DoubleValue
1 1.00
2 1.00
3 1.00
4 1.00
5 1.00
6 1.00
7 1.00
8 1.00
9 1.00
10 1.00
11 1.00
12 1.00

#	copyright 2023 drugdesign.org
#	Creation time:	2024-01-11T10:58:44Z

@<TRIPOS>MOLECULE
propanol_360.sd
   12    11     0 0 0
SMALL
USER_CHARGES


@<TRIPOS>ATOM
      1 H1            0.000000    0.000000    0.000000 H        1 SUBUNIT    0.2100
      2 C2            2.945200    1.441100   -0.000700 C.3      1 SUBUNIT   -0.0327
      3 C3            1.414900    1.350200    0.000000 C.3      1 SUBUNIT    0.0429
      4 O4            0.950000    0.000000    0.000000 O.3      1 SUBUNIT   -0.3962
      5 C5            3.513000    1.745500    1.390300 C.3      1 SUBUNIT   -0.0632
      6 H6            3.119100    2.713400    1.758900 H        1 SUBUNIT    0.0231
      7 H7            3.224200    0.947300    2.102500 H        1 SUBUNIT    0.0231
      8 H8            4.618600    1.802700    1.346200 H        1 SUBUNIT    0.0231
      9 H9            3.373100    0.490500   -0.376100 H        1 SUBUNIT    0.0287
     10 H10           3.269900    2.224800   -0.713500 H        1 SUBUNIT    0.0287
     11 H11           1.011300    1.881500   -0.884600 H        1 SUBUNIT    0.0563
     12 H12           1.012200    1.881200    0.885100 H        1 SUBUNIT    0.0563
@<TRIPOS>BOND
     1    1    4 1
     2    2    5 1
     3    2    3 1
     4    2    9 1
     5    2   10 1
     6    3    4 1
     7    3   11 1
     8    3   12 1
     9    5    6 1
    10    5    7 1
    11    5    8 1
@<SCITEGIC>ATOM_PROPERTY
Formal Charge
SciTegic.value.StringValue
1 0
2 0
3 0
4 0
5 0
6 0
7 0
8 0
9 0
10 0
11 0
12 0

@<SCITEGIC>ATOM_PROPERTY
pdb_tempFactor
SciTegic.value.DoubleValue
1 0.00
2 0.00
3 0.00
4 0.00
5 0.00
6 0.00
7 0.00
8 0.00
9 0.00
10 0.00
11 0.00
12 0.00

@<SCITEGIC>ATOM_PROPERTY
pdb_occupancy
SciTegic.value.DoubleValue
1 1.00
2 1.00
3 1.00
4 1.00
5 1.00
6 1.00
7 1.00
8 1.00
9 1.00
10 1.00
11 1.00
12 1.00

#	copyright 2023 drugdesign.org
#	Creation time:	2024-01-11T10:58:44Z

@<TRIPOS>MOLECULE
propanol_360.sd
   12    11     0 0 0
SMALL
USER_CHARGES


@<TRIPOS>ATOM
      1 H1            0.000000    0.000000    0.000000 H        1 SUBUNIT    0.2100
      2 C2            2.945200    1.441100   -0.000700 C.3      1 SUBUNIT   -0.0327
      3 C3            1.414900    1.350200    0.000000 C.3      1 SUBUNIT    0.0429
      4 O4            0.950000    0.000000    0.000000 O.3      1 SUBUNIT   -0.3962
      5 C5            3.514400    1.721300    1.394800 C.3      1 SUBUNIT   -0.0632
      6 H6            3.121000    2.682500    1.780600 H        1 SUBUNIT    0.0231
      7 H7            3.226400    0.910800    2.093300 H        1 SUBUNIT    0.0231
      8 H8            4.620000    1.779200    1.350500 H        1 SUBUNIT    0.0231
      9 H9            3.372700    0.497200   -0.393100 H        1 SUBUNIT    0.0287
     10 H10           3.269200    2.237100   -0.700100 H        1 SUBUNIT    0.0287
     11 H11           1.011300    1.881500   -0.884600 H        1 SUBUNIT    0.0563
     12 H12           1.012200    1.881200    0.885100 H        1 SUBUNIT    0.0563
@<TRIPOS>BOND
     1    1    4 1
     2    2    5 1
     3    2    3 1
     4    2    9 1
     5    2   10 1
     6    3    4 1
     7    3   11 1
     8    3   12 1
     9    5    6 1
    10    5    7 1
    11    5    8 1
@<SCITEGIC>ATOM_PROPERTY
Formal Charge
SciTegic.value.StringValue
1 0
2 0
3 0
4 0
5 0
6 0
7 0
8 0
9 0
10 0
11 0
12 0

@<SCITEGIC>ATOM_PROPERTY
pdb_tempFactor
SciTegic.value.DoubleValue
1 0.00
2 0.00
3 0.00
4 0.00
5 0.00
6 0.00
7 0.00
8 0.00
9 0.00
10 0.00
11 0.00
12 0.00

@<SCITEGIC>ATOM_PROPERTY
pdb_occupancy
SciTegic.value.DoubleValue
1 1.00
2 1.00
3 1.00
4 1.00
5 1.00
6 1.00
7 1.00
8 1.00
9 1.00
10 1.00
11 1.00
12 1.00

#	copyright 2023 drugdesign.org
#	Creation time:	2024-01-11T10:58:44Z

@<TRIPOS>MOLECULE
propanol_360.sd
   12    11     0 0 0
SMALL
USER_CHARGES


@<TRIPOS>ATOM
      1 H1            0.000000    0.000000    0.000000 H        1 SUBUNIT    0.2100
      2 C2            2.945200    1.441100   -0.000700 C.3      1 SUBUNIT   -0.0327
      3 C3            1.414900    1.350200    0.000000 C.3      1 SUBUNIT    0.0429
      4 O4            0.950000    0.000000    0.000000 O.3      1 SUBUNIT   -0.3962
      5 C5            3.515900    1.696900    1.398900 C.3      1 SUBUNIT   -0.0632
      6 H6            3.122900    2.651300    1.801800 H        1 SUBUNIT    0.0231
      7 H7            3.228600    0.874400    2.083400 H        1 SUBUNIT    0.0231
      8 H8            4.621400    1.755600    1.354500 H        1 SUBUNIT    0.0231
      9 H9            3.372300    0.504200   -0.409900 H        1 SUBUNIT    0.0287
     10 H10           3.268500    2.249100   -0.686500 H        1 SUBUNIT    0.0287
     11 H11           1.011300    1.881500   -0.884600 H        1 SUBUNIT    0.0563
     12 H12           1.012200    1.881200    0.885100 H        1 SUBUNIT    0.0563
@<TRIPOS>BOND
     1    1    4 1
     2    2    5 1
     3    2    3 1
     4    2    9 1
     5    2   10 1
     6    3    4 1
     7    3   11 1
     8    3   12 1
     9    5    6 1
    10    5    7 1
    11    5    8 1
@<SCITEGIC>ATOM_PROPERTY
Formal Charge
SciTegic.value.StringValue
1 0
2 0
3 0
4 0
5 0
6 0
7 0
8 0
9 0
10 0
11 0
12 0

@<SCITEGIC>ATOM_PROPERTY
pdb_tempFactor
SciTegic.value.DoubleValue
1 0.00
2 0.00
3 0.00
4 0.00
5 0.00
6 0.00
7 0.00
8 0.00
9 0.00
10 0.00
11 0.00
12 0.00

@<SCITEGIC>ATOM_PROPERTY
pdb_occupancy
SciTegic.value.DoubleValue
1 1.00
2 1.00
3 1.00
4 1.00
5 1.00
6 1.00
7 1.00
8 1.00
9 1.00
10 1.00
11 1.00
12 1.00

#	copyright 2023 drugdesign.org
#	Creation time:	2024-01-11T10:58:44Z

@<TRIPOS>MOLECULE
propanol_360.sd
   12    11     0 0 0
SMALL
USER_CHARGES


@<TRIPOS>ATOM
      1 H1            0.000000    0.000000    0.000000 H        1 SUBUNIT    0.2100
      2 C2            2.945200    1.441100   -0.000700 C.3      1 SUBUNIT   -0.0327
      3 C3            1.414900    1.350200    0.000000 C.3      1 SUBUNIT    0.0429
      4 O4            0.950000    0.000000    0.000000 O.3      1 SUBUNIT   -0.3962
      5 C5            3.517300    1.672500    1.402600 C.3      1 SUBUNIT   -0.0632
      6 H6            3.124700    2.619700    1.822400 H        1 SUBUNIT    0.0231
      7 H7            3.230700    0.838100    2.073000 H        1 SUBUNIT    0.0231
      8 H8            4.622800    1.732000    1.358000 H        1 SUBUNIT    0.0231
      9 H9            3.371900    0.511500   -0.426600 H        1 SUBUNIT    0.0287
     10 H10           3.267800    2.260900   -0.672600 H        1 SUBUNIT    0.0287
     11 H11           1.011300    1.881500   -0.884600 H        1 SUBUNIT    0.0563
     12 H12           1.012200    1.881200    0.885100 H        1 SUBUNIT    0.0563
@<TRIPOS>BOND
     1    1    4 1
     2    2    5 1
     3    2    3 1
     4    2    9 1
     5    2   10 1
     6    3    4 1
     7    3   11 1
     8    3   12 1
     9    5    6 1
    10    5    7 1
    11    5    8 1
@<SCITEGIC>ATOM_PROPERTY
Formal Charge
SciTegic.value.StringValue
1 0
2 0
3 0
4 0
5 0
6 0
7 0
8 0
9 0
10 0
11 0
12 0

@<SCITEGIC>ATOM_PROPERTY
pdb_tempFactor
SciTegic.value.DoubleValue
1 0.00
2 0.00
3 0.00
4 0.00
5 0.00
6 0.00
7 0.00
8 0.00
9 0.00
10 0.00
11 0.00
12 0.00

@<SCITEGIC>ATOM_PROPERTY
pdb_occupancy
SciTegic.value.DoubleValue
1 1.00
2 1.00
3 1.00
4 1.00
5 1.00
6 1.00
7 1.00
8 1.00
9 1.00
10 1.00
11 1.00
12 1.00

#	copyright 2023 drugdesign.org
#	Creation time:	2024-01-11T10:58:44Z

@<TRIPOS>MOLECULE
propanol_360.sd
   12    11     0 0 0
SMALL
USER_CHARGES


@<TRIPOS>ATOM
      1 H1            0.000000    0.000000    0.000000 H        1 SUBUNIT    0.2100
      2 C2            2.945200    1.441100   -0.000700 C.3      1 SUBUNIT   -0.0327
      3 C3            1.414900    1.350200    0.000000 C.3      1 SUBUNIT    0.0429
      4 O4            0.950000    0.000000    0.000000 O.3      1 SUBUNIT   -0.3962
      5 C5            3.518800    1.648000    1.405800 C.3      1 SUBUNIT   -0.0632
      6 H6            3.126600    2.587800    1.842500 H        1 SUBUNIT    0.0231
      7 H7            3.232800    0.802100    2.061800 H        1 SUBUNIT    0.0231
      8 H8            4.624200    1.708200    1.361200 H        1 SUBUNIT    0.0231
      9 H9            3.371400    0.519000   -0.443200 H        1 SUBUNIT    0.0287
     10 H10           3.267100    2.272500   -0.658600 H        1 SUBUNIT    0.0287
     11 H11           1.011300    1.881500   -0.884600 H        1 SUBUNIT    0.0563
     12 H12           1.012200    1.881200    0.885100 H        1 SUBUNIT    0.0563
@<TRIPOS>BOND
     1    1    4 1
     2    2    5 1
     3    2    3 1
     4    2    9 1
     5    2   10 1
     6    3    4 1
     7    3   11 1
     8    3   12 1
     9    5    6 1
    10    5    7 1
    11    5    8 1
@<SCITEGIC>ATOM_PROPERTY
Formal Charge
SciTegic.value.StringValue
1 0
2 0
3 0
4 0
5 0
6 0
7 0
8 0
9 0
10 0
11 0
12 0

@<SCITEGIC>ATOM_PROPERTY
pdb_tempFactor
SciTegic.value.DoubleValue
1 0.00
2 0.00
3 0.00
4 0.00
5 0.00
6 0.00
7 0.00
8 0.00
9 0.00
10 0.00
11 0.00
12 0.00

@<SCITEGIC>ATOM_PROPERTY
pdb_occupancy
SciTegic.value.DoubleValue
1 1.00
2 1.00
3 1.00
4 1.00
5 1.00
6 1.00
7 1.00
8 1.00
9 1.00
10 1.00
11 1.00
12 1.00

#	copyright 2023 drugdesign.org
#	Creation time:	2024-01-11T10:58:44Z

@<TRIPOS>MOLECULE
propanol_360.sd
   12    11     0 0 0
SMALL
USER_CHARGES


@<TRIPOS>ATOM
      1 H1            0.000000    0.000000    0.000000 H        1 SUBUNIT    0.2100
      2 C2            2.945200    1.441100   -0.000700 C.3      1 SUBUNIT   -0.0327
      3 C3            1.414900    1.350200    0.000000 C.3      1 SUBUNIT    0.0429
      4 O4            0.950000    0.000000    0.000000 O.3      1 SUBUNIT   -0.3962
      5 C5            3.520200    1.623500    1.408600 C.3      1 SUBUNIT   -0.0632
      6 H6            3.128600    2.555500    1.862000 H        1 SUBUNIT    0.0231
      7 H7            3.235000    0.766300    2.050100 H        1 SUBUNIT    0.0231
      8 H8            4.625600    1.684500    1.363900 H        1 SUBUNIT    0.0231
      9 H9            3.370900    0.526900   -0.459600 H        1 SUBUNIT    0.0287
     10 H10           3.266500    2.283900   -0.644300 H        1 SUBUNIT    0.0287
     11 H11           1.011300    1.881500   -0.884600 H        1 SUBUNIT    0.0563
     12 H12           1.012200    1.881200    0.885100 H        1 SUBUNIT    0.0563
@<TRIPOS>BOND
     1    1    4 1
     2    2    5 1
     3    2    3 1
     4    2    9 1
     5    2   10 1
     6    3    4 1
     7    3   11 1
     8    3   12 1
     9    5    6 1
    10    5    7 1
    11    5    8 1
@<SCITEGIC>ATOM_PROPERTY
Formal Charge
SciTegic.value.StringValue
1 0
2 0
3 0
4 0
5 0
6 0
7 0
8 0
9 0
10 0
11 0
12 0

@<SCITEGIC>ATOM_PROPERTY
pdb_tempFactor
SciTegic.value.DoubleValue
1 0.00
2 0.00
3 0.00
4 0.00
5 0.00
6 0.00
7 0.00
8 0.00
9 0.00
10 0.00
11 0.00
12 0.00

@<SCITEGIC>ATOM_PROPERTY
pdb_occupancy
SciTegic.value.DoubleValue
1 1.00
2 1.00
3 1.00
4 1.00
5 1.00
6 1.00
7 1.00
8 1.00
9 1.00
10 1.00
11 1.00
12 1.00

#	copyright 2023 drugdesign.org
#	Creation time:	2024-01-11T10:58:44Z

@<TRIPOS>MOLECULE
propanol_360.sd
   12    11     0 0 0
SMALL
USER_CHARGES


@<TRIPOS>ATOM
      1 H1            0.000000    0.000000    0.000000 H        1 SUBUNIT    0.2100
      2 C2            2.945200    1.441100   -0.000700 C.3      1 SUBUNIT   -0.0327
      3 C3            1.414900    1.350200    0.000000 C.3      1 SUBUNIT    0.0429
      4 O4            0.950000    0.000000    0.000000 O.3      1 SUBUNIT   -0.3962
      5 C5            3.521700    1.598900    1.411000 C.3      1 SUBUNIT   -0.0632
      6 H6            3.130500    2.522900    1.880900 H        1 SUBUNIT    0.0231
      7 H7            3.237100    0.730600    2.037700 H        1 SUBUNIT    0.0231
      8 H8            4.627100    1.660700    1.366200 H        1 SUBUNIT    0.0231
      9 H9            3.370400    0.535000   -0.475900 H        1 SUBUNIT    0.0287
     10 H10           3.265800    2.294900   -0.629900 H        1 SUBUNIT    0.0287
     11 H11           1.011300    1.881500   -0.884600 H        1 SUBUNIT    0.0563
     12 H12           1.012200    1.881200    0.885100 H        1 SUBUNIT    0.0563
@<TRIPOS>BOND
     1    1    4 1
     2    2    5 1
     3    2    3 1
     4    2    9 1
     5    2   10 1
     6    3    4 1
     7    3   11 1
     8    3   12 1
     9    5    6 1
    10    5    7 1
    11    5    8 1
@<SCITEGIC>ATOM_PROPERTY
Formal Charge
SciTegic.value.StringValue
1 0
2 0
3 0
4 0
5 0
6 0
7 0
8 0
9 0
10 0
11 0
12 0

@<SCITEGIC>ATOM_PROPERTY
pdb_tempFactor
SciTegic.value.DoubleValue
1 0.00
2 0.00
3 0.00
4 0.00
5 0.00
6 0.00
7 0.00
8 0.00
9 0.00
10 0.00
11 0.00
12 0.00

@<SCITEGIC>ATOM_PROPERTY
pdb_occupancy
SciTegic.value.DoubleValue
1 1.00
2 1.00
3 1.00
4 1.00
5 1.00
6 1.00
7 1.00
8 1.00
9 1.00
10 1.00
11 1.00
12 1.00

#	copyright 2023 drugdesign.org
#	Creation time:	2024-01-11T10:58:44Z

@<TRIPOS>MOLECULE
propanol_360.sd
   12    11     0 0 0
SMALL
USER_CHARGES


@<TRIPOS>ATOM
      1 H1            0.000000    0.000000    0.000000 H        1 SUBUNIT    0.2100
      2 C2            2.945200    1.441100   -0.000700 C.3      1 SUBUNIT   -0.0327
      3 C3            1.414900    1.350200    0.000000 C.3      1 SUBUNIT    0.0429
      4 O4            0.950000    0.000000    0.000000 O.3      1 SUBUNIT   -0.3962
      5 C5            3.523200    1.574300    1.412900 C.3      1 SUBUNIT   -0.0632
      6 H6            3.132500    2.489900    1.899300 H        1 SUBUNIT    0.0231
      7 H7            3.239200    0.695200    2.024700 H        1 SUBUNIT    0.0231
      8 H8            4.628500    1.636800    1.368000 H        1 SUBUNIT    0.0231
      9 H9            3.369900    0.543400   -0.492100 H        1 SUBUNIT    0.0287
     10 H10           3.265200    2.305800   -0.615200 H        1 SUBUNIT    0.0287
     11 H11           1.011300    1.881500   -0.884600 H        1 SUBUNIT    0.0563
     12 H12           1.012200    1.881200    0.885100 H        1 SUBUNIT    0.0563
@<TRIPOS>BOND
     1    1    4 1
     2    2    5 1
     3    2    3 1
     4    2    9 1
     5    2   10 1
     6    3    4 1
     7    3   11 1
     8    3   12 1
     9    5    6 1
    10    5    7 1
    11    5    8 1
@<SCITEGIC>ATOM_PROPERTY
Formal Charge
SciTegic.value.StringValue
1 0
2 0
3 0
4 0
5 0
6 0
7 0
8 0
9 0
10 0
11 0
12 0

@<SCITEGIC>ATOM_PROPERTY
pdb_tempFactor
SciTegic.value.DoubleValue
1 0.00
2 0.00
3 0.00
4 0.00
5 0.00
6 0.00
7 0.00
8 0.00
9 0.00
10 0.00
11 0.00
12 0.00

@<SCITEGIC>ATOM_PROPERTY
pdb_occupancy
SciTegic.value.DoubleValue
1 1.00
2 1.00
3 1.00
4 1.00
5 1.00
6 1.00
7 1.00
8 1.00
9 1.00
10 1.00
11 1.00
12 1.00

#	copyright 2023 drugdesign.org
#	Creation time:	2024-01-11T10:58:44Z

@<TRIPOS>MOLECULE
propanol_360.sd
   12    11     0 0 0
SMALL
USER_CHARGES


@<TRIPOS>ATOM
      1 H1            0.000000    0.000000    0.000000 H        1 SUBUNIT    0.2100
      2 C2            2.945200    1.441100   -0.000700 C.3      1 SUBUNIT   -0.0327
      3 C3            1.414900    1.350200    0.000000 C.3      1 SUBUNIT    0.0429
      4 O4            0.950000    0.000000    0.000000 O.3      1 SUBUNIT   -0.3962
      5 C5            3.524600    1.549600    1.414400 C.3      1 SUBUNIT   -0.0632
      6 H6            3.134500    2.456700    1.917100 H        1 SUBUNIT    0.0231
      7 H7            3.241300    0.660100    2.011100 H        1 SUBUNIT    0.0231
      8 H8            4.629900    1.613000    1.369500 H        1 SUBUNIT    0.0231
      9 H9            3.369400    0.552100   -0.508100 H        1 SUBUNIT    0.0287
     10 H10           3.264600    2.316400   -0.600400 H        1 SUBUNIT    0.0287
     11 H11           1.011300    1.881500   -0.884600 H        1 SUBUNIT    0.0563
     12 H12           1.012200    1.881200    0.885100 H        1 SUBUNIT    0.0563
@<TRIPOS>BOND
     1    1    4 1
     2    2    5 1
     3    2    3 1
     4    2    9 1
     5    2   10 1
     6    3    4 1
     7    3   11 1
     8    3   12 1
     9    5    6 1
    10    5    7 1
    11    5    8 1
@<SCITEGIC>ATOM_PROPERTY
Formal Charge
SciTegic.value.StringValue
1 0
2 0
3 0
4 0
5 0
6 0
7 0
8 0
9 0
10 0
11 0
12 0

@<SCITEGIC>ATOM_PROPERTY
pdb_tempFactor
SciTegic.value.DoubleValue
1 0.00
2 0.00
3 0.00
4 0.00
5 0.00
6 0.00
7 0.00
8 0.00
9 0.00
10 0.00
11 0.00
12 0.00

@<SCITEGIC>ATOM_PROPERTY
pdb_occupancy
SciTegic.value.DoubleValue
1 1.00
2 1.00
3 1.00
4 1.00
5 1.00
6 1.00
7 1.00
8 1.00
9 1.00
10 1.00
11 1.00
12 1.00

#	copyright 2023 drugdesign.org
#	Creation time:	2024-01-11T10:58:44Z

@<TRIPOS>MOLECULE
propanol_360.sd
   12    11     0 0 0
SMALL
USER_CHARGES


@<TRIPOS>ATOM
      1 H1            0.000000    0.000000    0.000000 H        1 SUBUNIT    0.2100
      2 C2            2.945200    1.441100   -0.000700 C.3      1 SUBUNIT   -0.0327
      3 C3            1.414900    1.350200    0.000000 C.3      1 SUBUNIT    0.0429
      4 O4            0.950000    0.000000    0.000000 O.3      1 SUBUNIT   -0.3962
      5 C5            3.526100    1.524900    1.415500 C.3      1 SUBUNIT   -0.0632
      6 H6            3.136500    2.423100    1.934300 H        1 SUBUNIT    0.0231
      7 H7            3.243300    0.625100    1.996900 H        1 SUBUNIT    0.0231
      8 H8            4.631300    1.589100    1.370500 H        1 SUBUNIT    0.0231
      9 H9            3.368900    0.561100   -0.523900 H        1 SUBUNIT    0.0287
     10 H10           3.263900    2.326700   -0.585400 H        1 SUBUNIT    0.0287
     11 H11           1.011300    1.881500   -0.884600 H        1 SUBUNIT    0.0563
     12 H12           1.012200    1.881200    0.885100 H        1 SUBUNIT    0.0563
@<TRIPOS>BOND
     1    1    4 1
     2    2    5 1
     3    2    3 1
     4    2    9 1
     5    2   10 1
     6    3    4 1
     7    3   11 1
     8    3   12 1
     9    5    6 1
    10    5    7 1
    11    5    8 1
@<SCITEGIC>ATOM_PROPERTY
Formal Charge
SciTegic.value.StringValue
1 0
2 0
3 0
4 0
5 0
6 0
7 0
8 0
9 0
10 0
11 0
12 0

@<SCITEGIC>ATOM_PROPERTY
pdb_tempFactor
SciTegic.value.DoubleValue
1 0.00
2 0.00
3 0.00
4 0.00
5 0.00
6 0.00
7 0.00
8 0.00
9 0.00
10 0.00
11 0.00
12 0.00

@<SCITEGIC>ATOM_PROPERTY
pdb_occupancy
SciTegic.value.DoubleValue
1 1.00
2 1.00
3 1.00
4 1.00
5 1.00
6 1.00
7 1.00
8 1.00
9 1.00
10 1.00
11 1.00
12 1.00

#	copyright 2023 drugdesign.org
#	Creation time:	2024-01-11T10:58:44Z

@<TRIPOS>MOLECULE
propanol_360.sd
   12    11     0 0 0
SMALL
USER_CHARGES


@<TRIPOS>ATOM
      1 H1            0.000000    0.000000    0.000000 H        1 SUBUNIT    0.2100
      2 C2            2.945200    1.441100   -0.000700 C.3      1 SUBUNIT   -0.0327
      3 C3            1.414900    1.350200    0.000000 C.3      1 SUBUNIT    0.0429
      4 O4            0.950000    0.000000    0.000000 O.3      1 SUBUNIT   -0.3962
      5 C5            3.527600    1.500300    1.416100 C.3      1 SUBUNIT   -0.0632
      6 H6            3.138500    2.389300    1.950900 H        1 SUBUNIT    0.0231
      7 H7            3.245400    0.590500    1.982100 H        1 SUBUNIT    0.0231
      8 H8            4.632700    1.565200    1.371200 H        1 SUBUNIT    0.0231
      9 H9            3.368300    0.570400   -0.539600 H        1 SUBUNIT    0.0287
     10 H10           3.263400    2.336700   -0.570200 H        1 SUBUNIT    0.0287
     11 H11           1.011300    1.881500   -0.884600 H        1 SUBUNIT    0.0563
     12 H12           1.012200    1.881200    0.885100 H        1 SUBUNIT    0.0563
@<TRIPOS>BOND
     1    1    4 1
     2    2    5 1
     3    2    3 1
     4    2    9 1
     5    2   10 1
     6    3    4 1
     7    3   11 1
     8    3   12 1
     9    5    6 1
    10    5    7 1
    11    5    8 1
@<SCITEGIC>ATOM_PROPERTY
Formal Charge
SciTegic.value.StringValue
1 0
2 0
3 0
4 0
5 0
6 0
7 0
8 0
9 0
10 0
11 0
12 0

@<SCITEGIC>ATOM_PROPERTY
pdb_tempFactor
SciTegic.value.DoubleValue
1 0.00
2 0.00
3 0.00
4 0.00
5 0.00
6 0.00
7 0.00
8 0.00
9 0.00
10 0.00
11 0.00
12 0.00

@<SCITEGIC>ATOM_PROPERTY
pdb_occupancy
SciTegic.value.DoubleValue
1 1.00
2 1.00
3 1.00
4 1.00
5 1.00
6 1.00
7 1.00
8 1.00
9 1.00
10 1.00
11 1.00
12 1.00

#	copyright 2023 drugdesign.org
#	Creation time:	2024-01-11T10:58:44Z

@<TRIPOS>MOLECULE
propanol_360.sd
   12    11     0 0 0
SMALL
USER_CHARGES


@<TRIPOS>ATOM
      1 H1            0.000000    0.000000    0.000000 H        1 SUBUNIT    0.2100
      2 C2            2.945200    1.441100   -0.000700 C.3      1 SUBUNIT   -0.0327
      3 C3            1.414900    1.350200    0.000000 C.3      1 SUBUNIT    0.0429
      4 O4            0.950000    0.000000    0.000000 O.3      1 SUBUNIT   -0.3962
      5 C5            3.529000    1.475600    1.416300 C.3      1 SUBUNIT   -0.0632
      6 H6            3.140500    2.355100    1.966900 H        1 SUBUNIT    0.0231
      7 H7            3.247400    0.556000    1.966700 H        1 SUBUNIT    0.0231
      8 H8            4.634200    1.541200    1.371400 H        1 SUBUNIT    0.0231
      9 H9            3.367700    0.579900   -0.555100 H        1 SUBUNIT    0.0287
     10 H10           3.262800    2.346500   -0.554800 H        1 SUBUNIT    0.0287
     11 H11           1.011300    1.881500   -0.884600 H        1 SUBUNIT    0.0563
     12 H12           1.012200    1.881200    0.885100 H        1 SUBUNIT    0.0563
@<TRIPOS>BOND
     1    1    4 1
     2    2    5 1
     3    2    3 1
     4    2    9 1
     5    2   10 1
     6    3    4 1
     7    3   11 1
     8    3   12 1
     9    5    6 1
    10    5    7 1
    11    5    8 1
@<SCITEGIC>ATOM_PROPERTY
Formal Charge
SciTegic.value.StringValue
1 0
2 0
3 0
4 0
5 0
6 0
7 0
8 0
9 0
10 0
11 0
12 0

@<SCITEGIC>ATOM_PROPERTY
pdb_tempFactor
SciTegic.value.DoubleValue
1 0.00
2 0.00
3 0.00
4 0.00
5 0.00
6 0.00
7 0.00
8 0.00
9 0.00
10 0.00
11 0.00
12 0.00

@<SCITEGIC>ATOM_PROPERTY
pdb_occupancy
SciTegic.value.DoubleValue
1 1.00
2 1.00
3 1.00
4 1.00
5 1.00
6 1.00
7 1.00
8 1.00
9 1.00
10 1.00
11 1.00
12 1.00

#	copyright 2023 drugdesign.org
#	Creation time:	2024-01-11T10:58:44Z

@<TRIPOS>MOLECULE
propanol_360.sd
   12    11     0 0 0
SMALL
USER_CHARGES


@<TRIPOS>ATOM
      1 H1            0.000000    0.000000    0.000000 H        1 SUBUNIT    0.2100
      2 C2            2.945200    1.441100   -0.000700 C.3      1 SUBUNIT   -0.0327
      3 C3            1.414900    1.350200    0.000000 C.3      1 SUBUNIT    0.0429
      4 O4            0.950000    0.000000    0.000000 O.3      1 SUBUNIT   -0.3962
      5 C5            3.530500    1.450900    1.416100 C.3      1 SUBUNIT   -0.0632
      6 H6            3.142600    2.320700    1.982400 H        1 SUBUNIT    0.0231
      7 H7            3.249400    0.521900    1.950600 H        1 SUBUNIT    0.0231
      8 H8            4.635600    1.517300    1.371200 H        1 SUBUNIT    0.0231
      9 H9            3.367100    0.589700   -0.570500 H        1 SUBUNIT    0.0287
     10 H10           3.262200    2.356000   -0.539300 H        1 SUBUNIT    0.0287
     11 H11           1.011300    1.881500   -0.884600 H        1 SUBUNIT    0.0563
     12 H12           1.012200    1.881200    0.885100 H        1 SUBUNIT    0.0563
@<TRIPOS>BOND
     1    1    4 1
     2    2    5 1
     3    2    3 1
     4    2    9 1
     5    2   10 1
     6    3    4 1
     7    3   11 1
     8    3   12 1
     9    5    6 1
    10    5    7 1
    11    5    8 1
@<SCITEGIC>ATOM_PROPERTY
Formal Charge
SciTegic.value.StringValue
1 0
2 0
3 0
4 0
5 0
6 0
7 0
8 0
9 0
10 0
11 0
12 0

@<SCITEGIC>ATOM_PROPERTY
pdb_tempFactor
SciTegic.value.DoubleValue
1 0.00
2 0.00
3 0.00
4 0.00
5 0.00
6 0.00
7 0.00
8 0.00
9 0.00
10 0.00
11 0.00
12 0.00

@<SCITEGIC>ATOM_PROPERTY
pdb_occupancy
SciTegic.value.DoubleValue
1 1.00
2 1.00
3 1.00
4 1.00
5 1.00
6 1.00
7 1.00
8 1.00
9 1.00
10 1.00
11 1.00
12 1.00

#	copyright 2023 drugdesign.org
#	Creation time:	2024-01-11T10:58:44Z

@<TRIPOS>MOLECULE
propanol_360.sd
   12    11     0 0 0
SMALL
USER_CHARGES


@<TRIPOS>ATOM
      1 H1            0.000000    0.000000    0.000000 H        1 SUBUNIT    0.2100
      2 C2            2.945200    1.441100   -0.000700 C.3      1 SUBUNIT   -0.0327
      3 C3            1.414900    1.350200    0.000000 C.3      1 SUBUNIT    0.0429
      4 O4            0.950000    0.000000    0.000000 O.3      1 SUBUNIT   -0.3962
      5 C5            3.532000    1.426200    1.415500 C.3      1 SUBUNIT   -0.0632
      6 H6            3.144600    2.286000    1.997200 H        1 SUBUNIT    0.0231
      7 H7            3.251400    0.488100    1.934000 H        1 SUBUNIT    0.0231
      8 H8            4.637000    1.493400    1.370500 H        1 SUBUNIT    0.0231
      9 H9            3.366500    0.599700   -0.585700 H        1 SUBUNIT    0.0287
     10 H10           3.261700    2.365300   -0.523600 H        1 SUBUNIT    0.0287
     11 H11           1.011300    1.881500   -0.884600 H        1 SUBUNIT    0.0563
     12 H12           1.012200    1.881200    0.885100 H        1 SUBUNIT    0.0563
@<TRIPOS>BOND
     1    1    4 1
     2    2    5 1
     3    2    3 1
     4    2    9 1
     5    2   10 1
     6    3    4 1
     7    3   11 1
     8    3   12 1
     9    5    6 1
    10    5    7 1
    11    5    8 1
@<SCITEGIC>ATOM_PROPERTY
Formal Charge
SciTegic.value.StringValue
1 0
2 0
3 0
4 0
5 0
6 0
7 0
8 0
9 0
10 0
11 0
12 0

@<SCITEGIC>ATOM_PROPERTY
pdb_tempFactor
SciTegic.value.DoubleValue
1 0.00
2 0.00
3 0.00
4 0.00
5 0.00
6 0.00
7 0.00
8 0.00
9 0.00
10 0.00
11 0.00
12 0.00

@<SCITEGIC>ATOM_PROPERTY
pdb_occupancy
SciTegic.value.DoubleValue
1 1.00
2 1.00
3 1.00
4 1.00
5 1.00
6 1.00
7 1.00
8 1.00
9 1.00
10 1.00
11 1.00
12 1.00

#	copyright 2023 drugdesign.org
#	Creation time:	2024-01-11T10:58:44Z

@<TRIPOS>MOLECULE
propanol_360.sd
   12    11     0 0 0
SMALL
USER_CHARGES


@<TRIPOS>ATOM
      1 H1            0.000000    0.000000    0.000000 H        1 SUBUNIT    0.2100
      2 C2            2.945200    1.441100   -0.000700 C.3      1 SUBUNIT   -0.0327
      3 C3            1.414900    1.350200    0.000000 C.3      1 SUBUNIT    0.0429
      4 O4            0.950000    0.000000    0.000000 O.3      1 SUBUNIT   -0.3962
      5 C5            3.533400    1.401500    1.414400 C.3      1 SUBUNIT   -0.0632
      6 H6            3.146700    2.251100    2.011400 H        1 SUBUNIT    0.0231
      7 H7            3.253400    0.454500    1.916800 H        1 SUBUNIT    0.0231
      8 H8            4.638400    1.469500    1.369500 H        1 SUBUNIT    0.0231
      9 H9            3.365900    0.610000   -0.600700 H        1 SUBUNIT    0.0287
     10 H10           3.261200    2.374200   -0.507800 H        1 SUBUNIT    0.0287
     11 H11           1.011300    1.881500   -0.884600 H        1 SUBUNIT    0.0563
     12 H12           1.012200    1.881200    0.885100 H        1 SUBUNIT    0.0563
@<TRIPOS>BOND
     1    1    4 1
     2    2    5 1
     3    2    3 1
     4    2    9 1
     5    2   10 1
     6    3    4 1
     7    3   11 1
     8    3   12 1
     9    5    6 1
    10    5    7 1
    11    5    8 1
@<SCITEGIC>ATOM_PROPERTY
Formal Charge
SciTegic.value.StringValue
1 0
2 0
3 0
4 0
5 0
6 0
7 0
8 0
9 0
10 0
11 0
12 0

@<SCITEGIC>ATOM_PROPERTY
pdb_tempFactor
SciTegic.value.DoubleValue
1 0.00
2 0.00
3 0.00
4 0.00
5 0.00
6 0.00
7 0.00
8 0.00
9 0.00
10 0.00
11 0.00
12 0.00

@<SCITEGIC>ATOM_PROPERTY
pdb_occupancy
SciTegic.value.DoubleValue
1 1.00
2 1.00
3 1.00
4 1.00
5 1.00
6 1.00
7 1.00
8 1.00
9 1.00
10 1.00
11 1.00
12 1.00

#	copyright 2023 drugdesign.org
#	Creation time:	2024-01-11T10:58:44Z

@<TRIPOS>MOLECULE
propanol_360.sd
   12    11     0 0 0
SMALL
USER_CHARGES


@<TRIPOS>ATOM
      1 H1            0.000000    0.000000    0.000000 H        1 SUBUNIT    0.2100
      2 C2            2.945200    1.441100   -0.000700 C.3      1 SUBUNIT   -0.0327
      3 C3            1.414900    1.350200    0.000000 C.3      1 SUBUNIT    0.0429
      4 O4            0.950000    0.000000    0.000000 O.3      1 SUBUNIT   -0.3962
      5 C5            3.534900    1.376900    1.412900 C.3      1 SUBUNIT   -0.0632
      6 H6            3.148800    2.215900    2.025000 H        1 SUBUNIT    0.0231
      7 H7            3.255400    0.421200    1.899000 H        1 SUBUNIT    0.0231
      8 H8            4.639800    1.445600    1.368000 H        1 SUBUNIT    0.0231
      9 H9            3.365300    0.620600   -0.615500 H        1 SUBUNIT    0.0287
     10 H10           3.260600    2.382900   -0.491800 H        1 SUBUNIT    0.0287
     11 H11           1.011300    1.881500   -0.884600 H        1 SUBUNIT    0.0563
     12 H12           1.012200    1.881200    0.885100 H        1 SUBUNIT    0.0563
@<TRIPOS>BOND
     1    1    4 1
     2    2    5 1
     3    2    3 1
     4    2    9 1
     5    2   10 1
     6    3    4 1
     7    3   11 1
     8    3   12 1
     9    5    6 1
    10    5    7 1
    11    5    8 1
@<SCITEGIC>ATOM_PROPERTY
Formal Charge
SciTegic.value.StringValue
1 0
2 0
3 0
4 0
5 0
6 0
7 0
8 0
9 0
10 0
11 0
12 0

@<SCITEGIC>ATOM_PROPERTY
pdb_tempFactor
SciTegic.value.DoubleValue
1 0.00
2 0.00
3 0.00
4 0.00
5 0.00
6 0.00
7 0.00
8 0.00
9 0.00
10 0.00
11 0.00
12 0.00

@<SCITEGIC>ATOM_PROPERTY
pdb_occupancy
SciTegic.value.DoubleValue
1 1.00
2 1.00
3 1.00
4 1.00
5 1.00
6 1.00
7 1.00
8 1.00
9 1.00
10 1.00
11 1.00
12 1.00

#	copyright 2023 drugdesign.org
#	Creation time:	2024-01-11T10:58:44Z

@<TRIPOS>MOLECULE
propanol_360.sd
   12    11     0 0 0
SMALL
USER_CHARGES


@<TRIPOS>ATOM
      1 H1            0.000000    0.000000    0.000000 H        1 SUBUNIT    0.2100
      2 C2            2.945200    1.441100   -0.000700 C.3      1 SUBUNIT   -0.0327
      3 C3            1.414900    1.350200    0.000000 C.3      1 SUBUNIT    0.0429
      4 O4            0.950000    0.000000    0.000000 O.3      1 SUBUNIT   -0.3962
      5 C5            3.536300    1.352300    1.410900 C.3      1 SUBUNIT   -0.0632
      6 H6            3.150900    2.180500    2.038000 H        1 SUBUNIT    0.0231
      7 H7            3.257300    0.388300    1.880600 H        1 SUBUNIT    0.0231
      8 H8            4.641300    1.421800    1.366100 H        1 SUBUNIT    0.0231
      9 H9            3.364600    0.631500   -0.630100 H        1 SUBUNIT    0.0287
     10 H10           3.260200    2.391300   -0.475600 H        1 SUBUNIT    0.0287
     11 H11           1.011300    1.881500   -0.884600 H        1 SUBUNIT    0.0563
     12 H12           1.012200    1.881200    0.885100 H        1 SUBUNIT    0.0563
@<TRIPOS>BOND
     1    1    4 1
     2    2    5 1
     3    2    3 1
     4    2    9 1
     5    2   10 1
     6    3    4 1
     7    3   11 1
     8    3   12 1
     9    5    6 1
    10    5    7 1
    11    5    8 1
@<SCITEGIC>ATOM_PROPERTY
Formal Charge
SciTegic.value.StringValue
1 0
2 0
3 0
4 0
5 0
6 0
7 0
8 0
9 0
10 0
11 0
12 0

@<SCITEGIC>ATOM_PROPERTY
pdb_tempFactor
SciTegic.value.DoubleValue
1 0.00
2 0.00
3 0.00
4 0.00
5 0.00
6 0.00
7 0.00
8 0.00
9 0.00
10 0.00
11 0.00
12 0.00

@<SCITEGIC>ATOM_PROPERTY
pdb_occupancy
SciTegic.value.DoubleValue
1 1.00
2 1.00
3 1.00
4 1.00
5 1.00
6 1.00
7 1.00
8 1.00
9 1.00
10 1.00
11 1.00
12 1.00

#	copyright 2023 drugdesign.org
#	Creation time:	2024-01-11T10:58:44Z

@<TRIPOS>MOLECULE
propanol_360.sd
   12    11     0 0 0
SMALL
USER_CHARGES


@<TRIPOS>ATOM
      1 H1            0.000000    0.000000    0.000000 H        1 SUBUNIT    0.2100
      2 C2            2.945200    1.441100   -0.000700 C.3      1 SUBUNIT   -0.0327
      3 C3            1.414900    1.350200    0.000000 C.3      1 SUBUNIT    0.0429
      4 O4            0.950000    0.000000    0.000000 O.3      1 SUBUNIT   -0.3962
      5 C5            3.537800    1.327700    1.408500 C.3      1 SUBUNIT   -0.0632
      6 H6            3.153100    2.144900    2.050300 H        1 SUBUNIT    0.0231
      7 H7            3.259300    0.355700    1.861700 H        1 SUBUNIT    0.0231
      8 H8            4.642700    1.398000    1.363800 H        1 SUBUNIT    0.0231
      9 H9            3.364000    0.642500   -0.644600 H        1 SUBUNIT    0.0287
     10 H10           3.259700    2.399500   -0.459300 H        1 SUBUNIT    0.0287
     11 H11           1.011300    1.881500   -0.884600 H        1 SUBUNIT    0.0563
     12 H12           1.012200    1.881200    0.885100 H        1 SUBUNIT    0.0563
@<TRIPOS>BOND
     1    1    4 1
     2    2    5 1
     3    2    3 1
     4    2    9 1
     5    2   10 1
     6    3    4 1
     7    3   11 1
     8    3   12 1
     9    5    6 1
    10    5    7 1
    11    5    8 1
@<SCITEGIC>ATOM_PROPERTY
Formal Charge
SciTegic.value.StringValue
1 0
2 0
3 0
4 0
5 0
6 0
7 0
8 0
9 0
10 0
11 0
12 0

@<SCITEGIC>ATOM_PROPERTY
pdb_tempFactor
SciTegic.value.DoubleValue
1 0.00
2 0.00
3 0.00
4 0.00
5 0.00
6 0.00
7 0.00
8 0.00
9 0.00
10 0.00
11 0.00
12 0.00

@<SCITEGIC>ATOM_PROPERTY
pdb_occupancy
SciTegic.value.DoubleValue
1 1.00
2 1.00
3 1.00
4 1.00
5 1.00
6 1.00
7 1.00
8 1.00
9 1.00
10 1.00
11 1.00
12 1.00

#	copyright 2023 drugdesign.org
#	Creation time:	2024-01-11T10:58:44Z

@<TRIPOS>MOLECULE
propanol_360.sd
   12    11     0 0 0
SMALL
USER_CHARGES


@<TRIPOS>ATOM
      1 H1            0.000000    0.000000    0.000000 H        1 SUBUNIT    0.2100
      2 C2            2.945200    1.441100   -0.000700 C.3      1 SUBUNIT   -0.0327
      3 C3            1.414900    1.350200    0.000000 C.3      1 SUBUNIT    0.0429
      4 O4            0.950000    0.000000    0.000000 O.3      1 SUBUNIT   -0.3962
      5 C5            3.539300    1.303200    1.405700 C.3      1 SUBUNIT   -0.0632
      6 H6            3.155200    2.109000    2.062100 H        1 SUBUNIT    0.0231
      7 H7            3.261200    0.323400    1.842100 H        1 SUBUNIT    0.0231
      8 H8            4.644100    1.374200    1.361100 H        1 SUBUNIT    0.0231
      9 H9            3.363300    0.653900   -0.658800 H        1 SUBUNIT    0.0287
     10 H10           3.259200    2.407300   -0.442900 H        1 SUBUNIT    0.0287
     11 H11           1.011300    1.881500   -0.884600 H        1 SUBUNIT    0.0563
     12 H12           1.012200    1.881200    0.885100 H        1 SUBUNIT    0.0563
@<TRIPOS>BOND
     1    1    4 1
     2    2    5 1
     3    2    3 1
     4    2    9 1
     5    2   10 1
     6    3    4 1
     7    3   11 1
     8    3   12 1
     9    5    6 1
    10    5    7 1
    11    5    8 1
@<SCITEGIC>ATOM_PROPERTY
Formal Charge
SciTegic.value.StringValue
1 0
2 0
3 0
4 0
5 0
6 0
7 0
8 0
9 0
10 0
11 0
12 0

@<SCITEGIC>ATOM_PROPERTY
pdb_tempFactor
SciTegic.value.DoubleValue
1 0.00
2 0.00
3 0.00
4 0.00
5 0.00
6 0.00
7 0.00
8 0.00
9 0.00
10 0.00
11 0.00
12 0.00

@<SCITEGIC>ATOM_PROPERTY
pdb_occupancy
SciTegic.value.DoubleValue
1 1.00
2 1.00
3 1.00
4 1.00
5 1.00
6 1.00
7 1.00
8 1.00
9 1.00
10 1.00
11 1.00
12 1.00

#	copyright 2023 drugdesign.org
#	Creation time:	2024-01-11T10:58:44Z

@<TRIPOS>MOLECULE
propanol_360.sd
   12    11     0 0 0
SMALL
USER_CHARGES


@<TRIPOS>ATOM
      1 H1            0.000000    0.000000    0.000000 H        1 SUBUNIT    0.2100
      2 C2            2.945200    1.441100   -0.000700 C.3      1 SUBUNIT   -0.0327
      3 C3            1.414900    1.350200    0.000000 C.3      1 SUBUNIT    0.0429
      4 O4            0.950000    0.000000    0.000000 O.3      1 SUBUNIT   -0.3962
      5 C5            3.540700    1.278700    1.402500 C.3      1 SUBUNIT   -0.0632
      6 H6            3.157300    2.073000    2.073200 H        1 SUBUNIT    0.0231
      7 H7            3.263100    0.291500    1.822100 H        1 SUBUNIT    0.0231
      8 H8            4.645500    1.350500    1.358000 H        1 SUBUNIT    0.0231
      9 H9            3.362600    0.665500   -0.672900 H        1 SUBUNIT    0.0287
     10 H10           3.258800    2.414900   -0.426300 H        1 SUBUNIT    0.0287
     11 H11           1.011300    1.881500   -0.884600 H        1 SUBUNIT    0.0563
     12 H12           1.012200    1.881200    0.885100 H        1 SUBUNIT    0.0563
@<TRIPOS>BOND
     1    1    4 1
     2    2    5 1
     3    2    3 1
     4    2    9 1
     5    2   10 1
     6    3    4 1
     7    3   11 1
     8    3   12 1
     9    5    6 1
    10    5    7 1
    11    5    8 1
@<SCITEGIC>ATOM_PROPERTY
Formal Charge
SciTegic.value.StringValue
1 0
2 0
3 0
4 0
5 0
6 0
7 0
8 0
9 0
10 0
11 0
12 0

@<SCITEGIC>ATOM_PROPERTY
pdb_tempFactor
SciTegic.value.DoubleValue
1 0.00
2 0.00
3 0.00
4 0.00
5 0.00
6 0.00
7 0.00
8 0.00
9 0.00
10 0.00
11 0.00
12 0.00

@<SCITEGIC>ATOM_PROPERTY
pdb_occupancy
SciTegic.value.DoubleValue
1 1.00
2 1.00
3 1.00
4 1.00
5 1.00
6 1.00
7 1.00
8 1.00
9 1.00
10 1.00
11 1.00
12 1.00

#	copyright 2023 drugdesign.org
#	Creation time:	2024-01-11T10:58:44Z

@<TRIPOS>MOLECULE
propanol_360.sd
   12    11     0 0 0
SMALL
USER_CHARGES


@<TRIPOS>ATOM
      1 H1            0.000000    0.000000    0.000000 H        1 SUBUNIT    0.2100
      2 C2            2.945200    1.441100   -0.000700 C.3      1 SUBUNIT   -0.0327
      3 C3            1.414900    1.350200    0.000000 C.3      1 SUBUNIT    0.0429
      4 O4            0.950000    0.000000    0.000000 O.3      1 SUBUNIT   -0.3962
      5 C5            3.542200    1.254300    1.398800 C.3      1 SUBUNIT   -0.0632
      6 H6            3.159500    2.036800    2.083600 H        1 SUBUNIT    0.0231
      7 H7            3.264900    0.259900    1.801400 H        1 SUBUNIT    0.0231
      8 H8            4.646900    1.326900    1.354400 H        1 SUBUNIT    0.0231
      9 H9            3.361900    0.677300   -0.686700 H        1 SUBUNIT    0.0287
     10 H10           3.258400    2.422100   -0.409600 H        1 SUBUNIT    0.0287
     11 H11           1.011300    1.881500   -0.884600 H        1 SUBUNIT    0.0563
     12 H12           1.012200    1.881200    0.885100 H        1 SUBUNIT    0.0563
@<TRIPOS>BOND
     1    1    4 1
     2    2    5 1
     3    2    3 1
     4    2    9 1
     5    2   10 1
     6    3    4 1
     7    3   11 1
     8    3   12 1
     9    5    6 1
    10    5    7 1
    11    5    8 1
@<SCITEGIC>ATOM_PROPERTY
Formal Charge
SciTegic.value.StringValue
1 0
2 0
3 0
4 0
5 0
6 0
7 0
8 0
9 0
10 0
11 0
12 0

@<SCITEGIC>ATOM_PROPERTY
pdb_tempFactor
SciTegic.value.DoubleValue
1 0.00
2 0.00
3 0.00
4 0.00
5 0.00
6 0.00
7 0.00
8 0.00
9 0.00
10 0.00
11 0.00
12 0.00

@<SCITEGIC>ATOM_PROPERTY
pdb_occupancy
SciTegic.value.DoubleValue
1 1.00
2 1.00
3 1.00
4 1.00
5 1.00
6 1.00
7 1.00
8 1.00
9 1.00
10 1.00
11 1.00
12 1.00

#	copyright 2023 drugdesign.org
#	Creation time:	2024-01-11T10:58:44Z

@<TRIPOS>MOLECULE
propanol_360.sd
   12    11     0 0 0
SMALL
USER_CHARGES


@<TRIPOS>ATOM
      1 H1            0.000000    0.000000    0.000000 H        1 SUBUNIT    0.2100
      2 C2            2.945200    1.441100   -0.000700 C.3      1 SUBUNIT   -0.0327
      3 C3            1.414900    1.350200    0.000000 C.3      1 SUBUNIT    0.0429
      4 O4            0.950000    0.000000    0.000000 O.3      1 SUBUNIT   -0.3962
      5 C5            3.543600    1.229900    1.394800 C.3      1 SUBUNIT   -0.0632
      6 H6            3.161700    2.000400    2.093500 H        1 SUBUNIT    0.0231
      7 H7            3.266800    0.228700    1.780200 H        1 SUBUNIT    0.0231
      8 H8            4.648300    1.303300    1.350500 H        1 SUBUNIT    0.0231
      9 H9            3.361200    0.689400   -0.700400 H        1 SUBUNIT    0.0287
     10 H10           3.257900    2.429100   -0.392800 H        1 SUBUNIT    0.0287
     11 H11           1.011300    1.881500   -0.884600 H        1 SUBUNIT    0.0563
     12 H12           1.012200    1.881200    0.885100 H        1 SUBUNIT    0.0563
@<TRIPOS>BOND
     1    1    4 1
     2    2    5 1
     3    2    3 1
     4    2    9 1
     5    2   10 1
     6    3    4 1
     7    3   11 1
     8    3   12 1
     9    5    6 1
    10    5    7 1
    11    5    8 1
@<SCITEGIC>ATOM_PROPERTY
Formal Charge
SciTegic.value.StringValue
1 0
2 0
3 0
4 0
5 0
6 0
7 0
8 0
9 0
10 0
11 0
12 0

@<SCITEGIC>ATOM_PROPERTY
pdb_tempFactor
SciTegic.value.DoubleValue
1 0.00
2 0.00
3 0.00
4 0.00
5 0.00
6 0.00
7 0.00
8 0.00
9 0.00
10 0.00
11 0.00
12 0.00

@<SCITEGIC>ATOM_PROPERTY
pdb_occupancy
SciTegic.value.DoubleValue
1 1.00
2 1.00
3 1.00
4 1.00
5 1.00
6 1.00
7 1.00
8 1.00
9 1.00
10 1.00
11 1.00
12 1.00

#	copyright 2023 drugdesign.org
#	Creation time:	2024-01-11T10:58:44Z

@<TRIPOS>MOLECULE
propanol_360.sd
   12    11     0 0 0
SMALL
USER_CHARGES


@<TRIPOS>ATOM
      1 H1            0.000000    0.000000    0.000000 H        1 SUBUNIT    0.2100
      2 C2            2.945200    1.441100   -0.000700 C.3      1 SUBUNIT   -0.0327
      3 C3            1.414900    1.350200    0.000000 C.3      1 SUBUNIT    0.0429
      4 O4            0.950000    0.000000    0.000000 O.3      1 SUBUNIT   -0.3962
      5 C5            3.545000    1.205600    1.390200 C.3      1 SUBUNIT   -0.0632
      6 H6            3.163800    1.963800    2.102700 H        1 SUBUNIT    0.0231
      7 H7            3.268600    0.197800    1.758500 H        1 SUBUNIT    0.0231
      8 H8            4.649700    1.279800    1.346100 H        1 SUBUNIT    0.0231
      9 H9            3.360400    0.701700   -0.713800 H        1 SUBUNIT    0.0287
     10 H10           3.257600    2.435800   -0.375800 H        1 SUBUNIT    0.0287
     11 H11           1.011300    1.881500   -0.884600 H        1 SUBUNIT    0.0563
     12 H12           1.012200    1.881200    0.885100 H        1 SUBUNIT    0.0563
@<TRIPOS>BOND
     1    1    4 1
     2    2    5 1
     3    2    3 1
     4    2    9 1
     5    2   10 1
     6    3    4 1
     7    3   11 1
     8    3   12 1
     9    5    6 1
    10    5    7 1
    11    5    8 1
@<SCITEGIC>ATOM_PROPERTY
Formal Charge
SciTegic.value.StringValue
1 0
2 0
3 0
4 0
5 0
6 0
7 0
8 0
9 0
10 0
11 0
12 0

@<SCITEGIC>ATOM_PROPERTY
pdb_tempFactor
SciTegic.value.DoubleValue
1 0.00
2 0.00
3 0.00
4 0.00
5 0.00
6 0.00
7 0.00
8 0.00
9 0.00
10 0.00
11 0.00
12 0.00

@<SCITEGIC>ATOM_PROPERTY
pdb_occupancy
SciTegic.value.DoubleValue
1 1.00
2 1.00
3 1.00
4 1.00
5 1.00
6 1.00
7 1.00
8 1.00
9 1.00
10 1.00
11 1.00
12 1.00

#	copyright 2023 drugdesign.org
#	Creation time:	2024-01-11T10:58:44Z

@<TRIPOS>MOLECULE
propanol_360.sd
   12    11     0 0 0
SMALL
USER_CHARGES


@<TRIPOS>ATOM
      1 H1            0.000000    0.000000    0.000000 H        1 SUBUNIT    0.2100
      2 C2            2.945200    1.441100   -0.000700 C.3      1 SUBUNIT   -0.0327
      3 C3            1.414900    1.350200    0.000000 C.3      1 SUBUNIT    0.0429
      4 O4            0.950000    0.000000    0.000000 O.3      1 SUBUNIT   -0.3962
      5 C5            3.546500    1.181400    1.385300 C.3      1 SUBUNIT   -0.0632
      6 H6            3.166000    1.927100    2.111200 H        1 SUBUNIT    0.0231
      7 H7            3.270400    0.167400    1.736200 H        1 SUBUNIT    0.0231
      8 H8            4.651100    1.256300    1.341300 H        1 SUBUNIT    0.0231
      9 H9            3.359700    0.714200   -0.727000 H        1 SUBUNIT    0.0287
     10 H10           3.257200    2.442200   -0.358700 H        1 SUBUNIT    0.0287
     11 H11           1.011300    1.881500   -0.884600 H        1 SUBUNIT    0.0563
     12 H12           1.012200    1.881200    0.885100 H        1 SUBUNIT    0.0563
@<TRIPOS>BOND
     1    1    4 1
     2    2    5 1
     3    2    3 1
     4    2    9 1
     5    2   10 1
     6    3    4 1
     7    3   11 1
     8    3   12 1
     9    5    6 1
    10    5    7 1
    11    5    8 1
@<SCITEGIC>ATOM_PROPERTY
Formal Charge
SciTegic.value.StringValue
1 0
2 0
3 0
4 0
5 0
6 0
7 0
8 0
9 0
10 0
11 0
12 0

@<SCITEGIC>ATOM_PROPERTY
pdb_tempFactor
SciTegic.value.DoubleValue
1 0.00
2 0.00
3 0.00
4 0.00
5 0.00
6 0.00
7 0.00
8 0.00
9 0.00
10 0.00
11 0.00
12 0.00

@<SCITEGIC>ATOM_PROPERTY
pdb_occupancy
SciTegic.value.DoubleValue
1 1.00
2 1.00
3 1.00
4 1.00
5 1.00
6 1.00
7 1.00
8 1.00
9 1.00
10 1.00
11 1.00
12 1.00

#	copyright 2023 drugdesign.org
#	Creation time:	2024-01-11T10:58:44Z

@<TRIPOS>MOLECULE
propanol_360.sd
   12    11     0 0 0
SMALL
USER_CHARGES


@<TRIPOS>ATOM
      1 H1            0.000000    0.000000    0.000000 H        1 SUBUNIT    0.2100
      2 C2            2.945200    1.441100   -0.000700 C.3      1 SUBUNIT   -0.0327
      3 C3            1.414900    1.350200    0.000000 C.3      1 SUBUNIT    0.0429
      4 O4            0.950000    0.000000    0.000000 O.3      1 SUBUNIT   -0.3962
      5 C5            3.547900    1.157300    1.380000 C.3      1 SUBUNIT   -0.0632
      6 H6            3.168200    1.890200    2.119100 H        1 SUBUNIT    0.0231
      7 H7            3.272200    0.137300    1.713500 H        1 SUBUNIT    0.0231
      8 H8            4.652500    1.233000    1.336100 H        1 SUBUNIT    0.0231
      9 H9            3.358900    0.727000   -0.740000 H        1 SUBUNIT    0.0287
     10 H10           3.256800    2.448300   -0.341600 H        1 SUBUNIT    0.0287
     11 H11           1.011300    1.881500   -0.884600 H        1 SUBUNIT    0.0563
     12 H12           1.012200    1.881200    0.885100 H        1 SUBUNIT    0.0563
@<TRIPOS>BOND
     1    1    4 1
     2    2    5 1
     3    2    3 1
     4    2    9 1
     5    2   10 1
     6    3    4 1
     7    3   11 1
     8    3   12 1
     9    5    6 1
    10    5    7 1
    11    5    8 1
@<SCITEGIC>ATOM_PROPERTY
Formal Charge
SciTegic.value.StringValue
1 0
2 0
3 0
4 0
5 0
6 0
7 0
8 0
9 0
10 0
11 0
12 0

@<SCITEGIC>ATOM_PROPERTY
pdb_tempFactor
SciTegic.value.DoubleValue
1 0.00
2 0.00
3 0.00
4 0.00
5 0.00
6 0.00
7 0.00
8 0.00
9 0.00
10 0.00
11 0.00
12 0.00

@<SCITEGIC>ATOM_PROPERTY
pdb_occupancy
SciTegic.value.DoubleValue
1 1.00
2 1.00
3 1.00
4 1.00
5 1.00
6 1.00
7 1.00
8 1.00
9 1.00
10 1.00
11 1.00
12 1.00

#	copyright 2023 drugdesign.org
#	Creation time:	2024-01-11T10:58:44Z

@<TRIPOS>MOLECULE
propanol_360.sd
   12    11     0 0 0
SMALL
USER_CHARGES


@<TRIPOS>ATOM
      1 H1            0.000000    0.000000    0.000000 H        1 SUBUNIT    0.2100
      2 C2            2.945200    1.441100   -0.000700 C.3      1 SUBUNIT   -0.0327
      3 C3            1.414900    1.350200    0.000000 C.3      1 SUBUNIT    0.0429
      4 O4            0.950000    0.000000    0.000000 O.3      1 SUBUNIT   -0.3962
      5 C5            3.549300    1.133300    1.374200 C.3      1 SUBUNIT   -0.0632
      6 H6            3.170400    1.853200    2.126400 H        1 SUBUNIT    0.0231
      7 H7            3.273900    0.107600    1.690100 H        1 SUBUNIT    0.0231
      8 H8            4.653800    1.209700    1.330500 H        1 SUBUNIT    0.0231
      9 H9            3.358100    0.740000   -0.752700 H        1 SUBUNIT    0.0287
     10 H10           3.256500    2.454100   -0.324300 H        1 SUBUNIT    0.0287
     11 H11           1.011300    1.881500   -0.884600 H        1 SUBUNIT    0.0563
     12 H12           1.012200    1.881200    0.885100 H        1 SUBUNIT    0.0563
@<TRIPOS>BOND
     1    1    4 1
     2    2    5 1
     3    2    3 1
     4    2    9 1
     5    2   10 1
     6    3    4 1
     7    3   11 1
     8    3   12 1
     9    5    6 1
    10    5    7 1
    11    5    8 1
@<SCITEGIC>ATOM_PROPERTY
Formal Charge
SciTegic.value.StringValue
1 0
2 0
3 0
4 0
5 0
6 0
7 0
8 0
9 0
10 0
11 0
12 0

@<SCITEGIC>ATOM_PROPERTY
pdb_tempFactor
SciTegic.value.DoubleValue
1 0.00
2 0.00
3 0.00
4 0.00
5 0.00
6 0.00
7 0.00
8 0.00
9 0.00
10 0.00
11 0.00
12 0.00

@<SCITEGIC>ATOM_PROPERTY
pdb_occupancy
SciTegic.value.DoubleValue
1 1.00
2 1.00
3 1.00
4 1.00
5 1.00
6 1.00
7 1.00
8 1.00
9 1.00
10 1.00
11 1.00
12 1.00

#	copyright 2023 drugdesign.org
#	Creation time:	2024-01-11T10:58:44Z

@<TRIPOS>MOLECULE
propanol_360.sd
   12    11     0 0 0
SMALL
USER_CHARGES


@<TRIPOS>ATOM
      1 H1            0.000000    0.000000    0.000000 H        1 SUBUNIT    0.2100
      2 C2            2.945200    1.441100   -0.000700 C.3      1 SUBUNIT   -0.0327
      3 C3            1.414900    1.350200    0.000000 C.3      1 SUBUNIT    0.0429
      4 O4            0.950000    0.000000    0.000000 O.3      1 SUBUNIT   -0.3962
      5 C5            3.550700    1.109400    1.368000 C.3      1 SUBUNIT   -0.0632
      6 H6            3.172600    1.816100    2.133000 H        1 SUBUNIT    0.0231
      7 H7            3.275700    0.078400    1.666300 H        1 SUBUNIT    0.0231
      8 H8            4.655200    1.186600    1.324500 H        1 SUBUNIT    0.0231
      9 H9            3.357300    0.753200   -0.765200 H        1 SUBUNIT    0.0287
     10 H10           3.256200    2.459500   -0.306900 H        1 SUBUNIT    0.0287
     11 H11           1.011300    1.881500   -0.884600 H        1 SUBUNIT    0.0563
     12 H12           1.012200    1.881200    0.885100 H        1 SUBUNIT    0.0563
@<TRIPOS>BOND
     1    1    4 1
     2    2    5 1
     3    2    3 1
     4    2    9 1
     5    2   10 1
     6    3    4 1
     7    3   11 1
     8    3   12 1
     9    5    6 1
    10    5    7 1
    11    5    8 1
@<SCITEGIC>ATOM_PROPERTY
Formal Charge
SciTegic.value.StringValue
1 0
2 0
3 0
4 0
5 0
6 0
7 0
8 0
9 0
10 0
11 0
12 0

@<SCITEGIC>ATOM_PROPERTY
pdb_tempFactor
SciTegic.value.DoubleValue
1 0.00
2 0.00
3 0.00
4 0.00
5 0.00
6 0.00
7 0.00
8 0.00
9 0.00
10 0.00
11 0.00
12 0.00

@<SCITEGIC>ATOM_PROPERTY
pdb_occupancy
SciTegic.value.DoubleValue
1 1.00
2 1.00
3 1.00
4 1.00
5 1.00
6 1.00
7 1.00
8 1.00
9 1.00
10 1.00
11 1.00
12 1.00

#	copyright 2023 drugdesign.org
#	Creation time:	2024-01-11T10:58:44Z

@<TRIPOS>MOLECULE
propanol_360.sd
   12    11     0 0 0
SMALL
USER_CHARGES


@<TRIPOS>ATOM
      1 H1            0.000000    0.000000    0.000000 H        1 SUBUNIT    0.2100
      2 C2            2.945200    1.441100   -0.000700 C.3      1 SUBUNIT   -0.0327
      3 C3            1.414900    1.350200    0.000000 C.3      1 SUBUNIT    0.0429
      4 O4            0.950000    0.000000    0.000000 O.3      1 SUBUNIT   -0.3962
      5 C5            3.552200    1.085600    1.361400 C.3      1 SUBUNIT   -0.0632
      6 H6            3.174800    1.778900    2.139000 H        1 SUBUNIT    0.0231
      7 H7            3.277400    0.049500    1.642000 H        1 SUBUNIT    0.0231
      8 H8            4.656600    1.163500    1.318100 H        1 SUBUNIT    0.0231
      9 H9            3.356500    0.766600   -0.777500 H        1 SUBUNIT    0.0287
     10 H10           3.255900    2.464700   -0.289500 H        1 SUBUNIT    0.0287
     11 H11           1.011300    1.881500   -0.884600 H        1 SUBUNIT    0.0563
     12 H12           1.012200    1.881200    0.885100 H        1 SUBUNIT    0.0563
@<TRIPOS>BOND
     1    1    4 1
     2    2    5 1
     3    2    3 1
     4    2    9 1
     5    2   10 1
     6    3    4 1
     7    3   11 1
     8    3   12 1
     9    5    6 1
    10    5    7 1
    11    5    8 1
@<SCITEGIC>ATOM_PROPERTY
Formal Charge
SciTegic.value.StringValue
1 0
2 0
3 0
4 0
5 0
6 0
7 0
8 0
9 0
10 0
11 0
12 0

@<SCITEGIC>ATOM_PROPERTY
pdb_tempFactor
SciTegic.value.DoubleValue
1 0.00
2 0.00
3 0.00
4 0.00
5 0.00
6 0.00
7 0.00
8 0.00
9 0.00
10 0.00
11 0.00
12 0.00

@<SCITEGIC>ATOM_PROPERTY
pdb_occupancy
SciTegic.value.DoubleValue
1 1.00
2 1.00
3 1.00
4 1.00
5 1.00
6 1.00
7 1.00
8 1.00
9 1.00
10 1.00
11 1.00
12 1.00

#	copyright 2023 drugdesign.org
#	Creation time:	2024-01-11T10:58:44Z

@<TRIPOS>MOLECULE
propanol_360.sd
   12    11     0 0 0
SMALL
USER_CHARGES


@<TRIPOS>ATOM
      1 H1            0.000000    0.000000    0.000000 H        1 SUBUNIT    0.2100
      2 C2            2.945200    1.441100   -0.000700 C.3      1 SUBUNIT   -0.0327
      3 C3            1.414900    1.350200    0.000000 C.3      1 SUBUNIT    0.0429
      4 O4            0.950000    0.000000    0.000000 O.3      1 SUBUNIT   -0.3962
      5 C5            3.553600    1.061900    1.354300 C.3      1 SUBUNIT   -0.0632
      6 H6            3.177100    1.741500    2.144300 H        1 SUBUNIT    0.0231
      7 H7            3.279000    0.021100    1.617100 H        1 SUBUNIT    0.0231
      8 H8            4.657900    1.140600    1.311300 H        1 SUBUNIT    0.0231
      9 H9            3.355700    0.780200   -0.789600 H        1 SUBUNIT    0.0287
     10 H10           3.255600    2.469600   -0.271900 H        1 SUBUNIT    0.0287
     11 H11           1.011300    1.881500   -0.884600 H        1 SUBUNIT    0.0563
     12 H12           1.012200    1.881200    0.885100 H        1 SUBUNIT    0.0563
@<TRIPOS>BOND
     1    1    4 1
     2    2    5 1
     3    2    3 1
     4    2    9 1
     5    2   10 1
     6    3    4 1
     7    3   11 1
     8    3   12 1
     9    5    6 1
    10    5    7 1
    11    5    8 1
@<SCITEGIC>ATOM_PROPERTY
Formal Charge
SciTegic.value.StringValue
1 0
2 0
3 0
4 0
5 0
6 0
7 0
8 0
9 0
10 0
11 0
12 0

@<SCITEGIC>ATOM_PROPERTY
pdb_tempFactor
SciTegic.value.DoubleValue
1 0.00
2 0.00
3 0.00
4 0.00
5 0.00
6 0.00
7 0.00
8 0.00
9 0.00
10 0.00
11 0.00
12 0.00

@<SCITEGIC>ATOM_PROPERTY
pdb_occupancy
SciTegic.value.DoubleValue
1 1.00
2 1.00
3 1.00
4 1.00
5 1.00
6 1.00
7 1.00
8 1.00
9 1.00
10 1.00
11 1.00
12 1.00

#	copyright 2023 drugdesign.org
#	Creation time:	2024-01-11T10:58:44Z

@<TRIPOS>MOLECULE
propanol_360.sd
   12    11     0 0 0
SMALL
USER_CHARGES


@<TRIPOS>ATOM
      1 H1            0.000000    0.000000    0.000000 H        1 SUBUNIT    0.2100
      2 C2            2.945200    1.441100   -0.000700 C.3      1 SUBUNIT   -0.0327
      3 C3            1.414900    1.350200    0.000000 C.3      1 SUBUNIT    0.0429
      4 O4            0.950000    0.000000    0.000000 O.3      1 SUBUNIT   -0.3962
      5 C5            3.555000    1.038400    1.346900 C.3      1 SUBUNIT   -0.0632
      6 H6            3.179300    1.704100    2.149000 H        1 SUBUNIT    0.0231
      7 H7            3.280700   -0.006800    1.591800 H        1 SUBUNIT    0.0231
      8 H8            4.659300    1.117800    1.304100 H        1 SUBUNIT    0.0231
      9 H9            3.354900    0.794100   -0.801400 H        1 SUBUNIT    0.0287
     10 H10           3.255300    2.474200   -0.254300 H        1 SUBUNIT    0.0287
     11 H11           1.011300    1.881500   -0.884600 H        1 SUBUNIT    0.0563
     12 H12           1.012200    1.881200    0.885100 H        1 SUBUNIT    0.0563
@<TRIPOS>BOND
     1    1    4 1
     2    2    5 1
     3    2    3 1
     4    2    9 1
     5    2   10 1
     6    3    4 1
     7    3   11 1
     8    3   12 1
     9    5    6 1
    10    5    7 1
    11    5    8 1
@<SCITEGIC>ATOM_PROPERTY
Formal Charge
SciTegic.value.StringValue
1 0
2 0
3 0
4 0
5 0
6 0
7 0
8 0
9 0
10 0
11 0
12 0

@<SCITEGIC>ATOM_PROPERTY
pdb_tempFactor
SciTegic.value.DoubleValue
1 0.00
2 0.00
3 0.00
4 0.00
5 0.00
6 0.00
7 0.00
8 0.00
9 0.00
10 0.00
11 0.00
12 0.00

@<SCITEGIC>ATOM_PROPERTY
pdb_occupancy
SciTegic.value.DoubleValue
1 1.00
2 1.00
3 1.00
4 1.00
5 1.00
6 1.00
7 1.00
8 1.00
9 1.00
10 1.00
11 1.00
12 1.00

#	copyright 2023 drugdesign.org
#	Creation time:	2024-01-11T10:58:44Z

@<TRIPOS>MOLECULE
propanol_360.sd
   12    11     0 0 0
SMALL
USER_CHARGES


@<TRIPOS>ATOM
      1 H1            0.000000    0.000000    0.000000 H        1 SUBUNIT    0.2100
      2 C2            2.945200    1.441100   -0.000700 C.3      1 SUBUNIT   -0.0327
      3 C3            1.414900    1.350200    0.000000 C.3      1 SUBUNIT    0.0429
      4 O4            0.950000    0.000000    0.000000 O.3      1 SUBUNIT   -0.3962
      5 C5            3.556300    1.015000    1.339000 C.3      1 SUBUNIT   -0.0632
      6 H6            3.181500    1.666600    2.153000 H        1 SUBUNIT    0.0231
      7 H7            3.282300   -0.034300    1.566000 H        1 SUBUNIT    0.0231
      8 H8            4.660600    1.095100    1.296500 H        1 SUBUNIT    0.0231
      9 H9            3.354100    0.808100   -0.813000 H        1 SUBUNIT    0.0287
     10 H10           3.255100    2.478400   -0.236600 H        1 SUBUNIT    0.0287
     11 H11           1.011300    1.881500   -0.884600 H        1 SUBUNIT    0.0563
     12 H12           1.012200    1.881200    0.885100 H        1 SUBUNIT    0.0563
@<TRIPOS>BOND
     1    1    4 1
     2    2    5 1
     3    2    3 1
     4    2    9 1
     5    2   10 1
     6    3    4 1
     7    3   11 1
     8    3   12 1
     9    5    6 1
    10    5    7 1
    11    5    8 1
@<SCITEGIC>ATOM_PROPERTY
Formal Charge
SciTegic.value.StringValue
1 0
2 0
3 0
4 0
5 0
6 0
7 0
8 0
9 0
10 0
11 0
12 0

@<SCITEGIC>ATOM_PROPERTY
pdb_tempFactor
SciTegic.value.DoubleValue
1 0.00
2 0.00
3 0.00
4 0.00
5 0.00
6 0.00
7 0.00
8 0.00
9 0.00
10 0.00
11 0.00
12 0.00

@<SCITEGIC>ATOM_PROPERTY
pdb_occupancy
SciTegic.value.DoubleValue
1 1.00
2 1.00
3 1.00
4 1.00
5 1.00
6 1.00
7 1.00
8 1.00
9 1.00
10 1.00
11 1.00
12 1.00

#	copyright 2023 drugdesign.org
#	Creation time:	2024-01-11T10:58:44Z

@<TRIPOS>MOLECULE
propanol_360.sd
   12    11     0 0 0
SMALL
USER_CHARGES


@<TRIPOS>ATOM
      1 H1            0.000000    0.000000    0.000000 H        1 SUBUNIT    0.2100
      2 C2            2.945200    1.441100   -0.000700 C.3      1 SUBUNIT   -0.0327
      3 C3            1.414900    1.350200    0.000000 C.3      1 SUBUNIT    0.0429
      4 O4            0.950000    0.000000    0.000000 O.3      1 SUBUNIT   -0.3962
      5 C5            3.557700    0.991700    1.330800 C.3      1 SUBUNIT   -0.0632
      6 H6            3.183700    1.629100    2.156400 H        1 SUBUNIT    0.0231
      7 H7            3.283900   -0.061400    1.539700 H        1 SUBUNIT    0.0231
      8 H8            4.662000    1.072500    1.288500 H        1 SUBUNIT    0.0231
      9 H9            3.353200    0.822400   -0.824300 H        1 SUBUNIT    0.0287
     10 H10           3.254900    2.482400   -0.218800 H        1 SUBUNIT    0.0287
     11 H11           1.011300    1.881500   -0.884600 H        1 SUBUNIT    0.0563
     12 H12           1.012200    1.881200    0.885100 H        1 SUBUNIT    0.0563
@<TRIPOS>BOND
     1    1    4 1
     2    2    5 1
     3    2    3 1
     4    2    9 1
     5    2   10 1
     6    3    4 1
     7    3   11 1
     8    3   12 1
     9    5    6 1
    10    5    7 1
    11    5    8 1
@<SCITEGIC>ATOM_PROPERTY
Formal Charge
SciTegic.value.StringValue
1 0
2 0
3 0
4 0
5 0
6 0
7 0
8 0
9 0
10 0
11 0
12 0

@<SCITEGIC>ATOM_PROPERTY
pdb_tempFactor
SciTegic.value.DoubleValue
1 0.00
2 0.00
3 0.00
4 0.00
5 0.00
6 0.00
7 0.00
8 0.00
9 0.00
10 0.00
11 0.00
12 0.00

@<SCITEGIC>ATOM_PROPERTY
pdb_occupancy
SciTegic.value.DoubleValue
1 1.00
2 1.00
3 1.00
4 1.00
5 1.00
6 1.00
7 1.00
8 1.00
9 1.00
10 1.00
11 1.00
12 1.00

#	copyright 2023 drugdesign.org
#	Creation time:	2024-01-11T10:58:44Z

@<TRIPOS>MOLECULE
propanol_360.sd
   12    11     0 0 0
SMALL
USER_CHARGES


@<TRIPOS>ATOM
      1 H1            0.000000    0.000000    0.000000 H        1 SUBUNIT    0.2100
      2 C2            2.945200    1.441100   -0.000700 C.3      1 SUBUNIT   -0.0327
      3 C3            1.414900    1.350200    0.000000 C.3      1 SUBUNIT    0.0429
      4 O4            0.950000    0.000000    0.000000 O.3      1 SUBUNIT   -0.3962
      5 C5            3.559100    0.968600    1.322100 C.3      1 SUBUNIT   -0.0632
      6 H6            3.186000    1.591500    2.159100 H        1 SUBUNIT    0.0231
      7 H7            3.285500   -0.088000    1.512900 H        1 SUBUNIT    0.0231
      8 H8            4.663300    1.050100    1.280100 H        1 SUBUNIT    0.0231
      9 H9            3.352300    0.836800   -0.835400 H        1 SUBUNIT    0.0287
     10 H10           3.254700    2.486000   -0.200900 H        1 SUBUNIT    0.0287
     11 H11           1.011300    1.881500   -0.884600 H        1 SUBUNIT    0.0563
     12 H12           1.012200    1.881200    0.885100 H        1 SUBUNIT    0.0563
@<TRIPOS>BOND
     1    1    4 1
     2    2    5 1
     3    2    3 1
     4    2    9 1
     5    2   10 1
     6    3    4 1
     7    3   11 1
     8    3   12 1
     9    5    6 1
    10    5    7 1
    11    5    8 1
@<SCITEGIC>ATOM_PROPERTY
Formal Charge
SciTegic.value.StringValue
1 0
2 0
3 0
4 0
5 0
6 0
7 0
8 0
9 0
10 0
11 0
12 0

@<SCITEGIC>ATOM_PROPERTY
pdb_tempFactor
SciTegic.value.DoubleValue
1 0.00
2 0.00
3 0.00
4 0.00
5 0.00
6 0.00
7 0.00
8 0.00
9 0.00
10 0.00
11 0.00
12 0.00

@<SCITEGIC>ATOM_PROPERTY
pdb_occupancy
SciTegic.value.DoubleValue
1 1.00
2 1.00
3 1.00
4 1.00
5 1.00
6 1.00
7 1.00
8 1.00
9 1.00
10 1.00
11 1.00
12 1.00

#	copyright 2023 drugdesign.org
#	Creation time:	2024-01-11T10:58:44Z

@<TRIPOS>MOLECULE
propanol_360.sd
   12    11     0 0 0
SMALL
USER_CHARGES


@<TRIPOS>ATOM
      1 H1            0.000000    0.000000    0.000000 H        1 SUBUNIT    0.2100
      2 C2            2.945200    1.441100   -0.000700 C.3      1 SUBUNIT   -0.0327
      3 C3            1.414900    1.350200    0.000000 C.3      1 SUBUNIT    0.0429
      4 O4            0.950000    0.000000    0.000000 O.3      1 SUBUNIT   -0.3962
      5 C5            3.560500    0.945600    1.313000 C.3      1 SUBUNIT   -0.0632
      6 H6            3.188200    1.553800    2.161100 H        1 SUBUNIT    0.0231
      7 H7            3.287000   -0.114200    1.485700 H        1 SUBUNIT    0.0231
      8 H8            4.664600    1.027900    1.271300 H        1 SUBUNIT    0.0231
      9 H9            3.351500    0.851500   -0.846200 H        1 SUBUNIT    0.0287
     10 H10           3.254500    2.489400   -0.183000 H        1 SUBUNIT    0.0287
     11 H11           1.011300    1.881500   -0.884600 H        1 SUBUNIT    0.0563
     12 H12           1.012200    1.881200    0.885100 H        1 SUBUNIT    0.0563
@<TRIPOS>BOND
     1    1    4 1
     2    2    5 1
     3    2    3 1
     4    2    9 1
     5    2   10 1
     6    3    4 1
     7    3   11 1
     8    3   12 1
     9    5    6 1
    10    5    7 1
    11    5    8 1
@<SCITEGIC>ATOM_PROPERTY
Formal Charge
SciTegic.value.StringValue
1 0
2 0
3 0
4 0
5 0
6 0
7 0
8 0
9 0
10 0
11 0
12 0

@<SCITEGIC>ATOM_PROPERTY
pdb_tempFactor
SciTegic.value.DoubleValue
1 0.00
2 0.00
3 0.00
4 0.00
5 0.00
6 0.00
7 0.00
8 0.00
9 0.00
10 0.00
11 0.00
12 0.00

@<SCITEGIC>ATOM_PROPERTY
pdb_occupancy
SciTegic.value.DoubleValue
1 1.00
2 1.00
3 1.00
4 1.00
5 1.00
6 1.00
7 1.00
8 1.00
9 1.00
10 1.00
11 1.00
12 1.00

#	copyright 2023 drugdesign.org
#	Creation time:	2024-01-11T10:58:44Z

@<TRIPOS>MOLECULE
propanol_360.sd
   12    11     0 0 0
SMALL
USER_CHARGES


@<TRIPOS>ATOM
      1 H1            0.000000    0.000000    0.000000 H        1 SUBUNIT    0.2100
      2 C2            2.945200    1.441100   -0.000700 C.3      1 SUBUNIT   -0.0327
      3 C3            1.414900    1.350200    0.000000 C.3      1 SUBUNIT    0.0429
      4 O4            0.950000    0.000000    0.000000 O.3      1 SUBUNIT   -0.3962
      5 C5            3.561800    0.922800    1.303600 C.3      1 SUBUNIT   -0.0632
      6 H6            3.190500    1.516100    2.162500 H        1 SUBUNIT    0.0231
      7 H7            3.288500   -0.139800    1.458000 H        1 SUBUNIT    0.0231
      8 H8            4.665900    1.005800    1.262100 H        1 SUBUNIT    0.0231
      9 H9            3.350600    0.866300   -0.856800 H        1 SUBUNIT    0.0287
     10 H10           3.254300    2.492400   -0.165000 H        1 SUBUNIT    0.0287
     11 H11           1.011300    1.881500   -0.884600 H        1 SUBUNIT    0.0563
     12 H12           1.012200    1.881200    0.885100 H        1 SUBUNIT    0.0563
@<TRIPOS>BOND
     1    1    4 1
     2    2    5 1
     3    2    3 1
     4    2    9 1
     5    2   10 1
     6    3    4 1
     7    3   11 1
     8    3   12 1
     9    5    6 1
    10    5    7 1
    11    5    8 1
@<SCITEGIC>ATOM_PROPERTY
Formal Charge
SciTegic.value.StringValue
1 0
2 0
3 0
4 0
5 0
6 0
7 0
8 0
9 0
10 0
11 0
12 0

@<SCITEGIC>ATOM_PROPERTY
pdb_tempFactor
SciTegic.value.DoubleValue
1 0.00
2 0.00
3 0.00
4 0.00
5 0.00
6 0.00
7 0.00
8 0.00
9 0.00
10 0.00
11 0.00
12 0.00

@<SCITEGIC>ATOM_PROPERTY
pdb_occupancy
SciTegic.value.DoubleValue
1 1.00
2 1.00
3 1.00
4 1.00
5 1.00
6 1.00
7 1.00
8 1.00
9 1.00
10 1.00
11 1.00
12 1.00

#	copyright 2023 drugdesign.org
#	Creation time:	2024-01-11T10:58:44Z

@<TRIPOS>MOLECULE
propanol_360.sd
   12    11     0 0 0
SMALL
USER_CHARGES


@<TRIPOS>ATOM
      1 H1            0.000000    0.000000    0.000000 H        1 SUBUNIT    0.2100
      2 C2            2.945200    1.441100   -0.000700 C.3      1 SUBUNIT   -0.0327
      3 C3            1.414900    1.350200    0.000000 C.3      1 SUBUNIT    0.0429
      4 O4            0.950000    0.000000    0.000000 O.3      1 SUBUNIT   -0.3962
      5 C5            3.563100    0.900100    1.293700 C.3      1 SUBUNIT   -0.0632
      6 H6            3.192700    1.478400    2.163200 H        1 SUBUNIT    0.0231
      7 H7            3.290000   -0.165000    1.429900 H        1 SUBUNIT    0.0231
      8 H8            4.667200    0.983900    1.252600 H        1 SUBUNIT    0.0231
      9 H9            3.349700    0.881300   -0.867100 H        1 SUBUNIT    0.0287
     10 H10           3.254100    2.495100   -0.147000 H        1 SUBUNIT    0.0287
     11 H11           1.011300    1.881500   -0.884600 H        1 SUBUNIT    0.0563
     12 H12           1.012200    1.881200    0.885100 H        1 SUBUNIT    0.0563
@<TRIPOS>BOND
     1    1    4 1
     2    2    5 1
     3    2    3 1
     4    2    9 1
     5    2   10 1
     6    3    4 1
     7    3   11 1
     8    3   12 1
     9    5    6 1
    10    5    7 1
    11    5    8 1
@<SCITEGIC>ATOM_PROPERTY
Formal Charge
SciTegic.value.StringValue
1 0
2 0
3 0
4 0
5 0
6 0
7 0
8 0
9 0
10 0
11 0
12 0

@<SCITEGIC>ATOM_PROPERTY
pdb_tempFactor
SciTegic.value.DoubleValue
1 0.00
2 0.00
3 0.00
4 0.00
5 0.00
6 0.00
7 0.00
8 0.00
9 0.00
10 0.00
11 0.00
12 0.00

@<SCITEGIC>ATOM_PROPERTY
pdb_occupancy
SciTegic.value.DoubleValue
1 1.00
2 1.00
3 1.00
4 1.00
5 1.00
6 1.00
7 1.00
8 1.00
9 1.00
10 1.00
11 1.00
12 1.00

#	copyright 2023 drugdesign.org
#	Creation time:	2024-01-11T10:58:44Z

@<TRIPOS>MOLECULE
propanol_360.sd
   12    11     0 0 0
SMALL
USER_CHARGES


@<TRIPOS>ATOM
      1 H1            0.000000    0.000000    0.000000 H        1 SUBUNIT    0.2100
      2 C2            2.945200    1.441100   -0.000700 C.3      1 SUBUNIT   -0.0327
      3 C3            1.414900    1.350200    0.000000 C.3      1 SUBUNIT    0.0429
      4 O4            0.950000    0.000000    0.000000 O.3      1 SUBUNIT   -0.3962
      5 C5            3.564500    0.877700    1.283400 C.3      1 SUBUNIT   -0.0632
      6 H6            3.194900    1.440700    2.163300 H        1 SUBUNIT    0.0231
      7 H7            3.291500   -0.189700    1.401400 H        1 SUBUNIT    0.0231
      8 H8            4.668500    0.962100    1.242700 H        1 SUBUNIT    0.0231
      9 H9            3.348800    0.896500   -0.877100 H        1 SUBUNIT    0.0287
     10 H10           3.254000    2.497500   -0.128900 H        1 SUBUNIT    0.0287
     11 H11           1.011300    1.881500   -0.884600 H        1 SUBUNIT    0.0563
     12 H12           1.012200    1.881200    0.885100 H        1 SUBUNIT    0.0563
@<TRIPOS>BOND
     1    1    4 1
     2    2    5 1
     3    2    3 1
     4    2    9 1
     5    2   10 1
     6    3    4 1
     7    3   11 1
     8    3   12 1
     9    5    6 1
    10    5    7 1
    11    5    8 1
@<SCITEGIC>ATOM_PROPERTY
Formal Charge
SciTegic.value.StringValue
1 0
2 0
3 0
4 0
5 0
6 0
7 0
8 0
9 0
10 0
11 0
12 0

@<SCITEGIC>ATOM_PROPERTY
pdb_tempFactor
SciTegic.value.DoubleValue
1 0.00
2 0.00
3 0.00
4 0.00
5 0.00
6 0.00
7 0.00
8 0.00
9 0.00
10 0.00
11 0.00
12 0.00

@<SCITEGIC>ATOM_PROPERTY
pdb_occupancy
SciTegic.value.DoubleValue
1 1.00
2 1.00
3 1.00
4 1.00
5 1.00
6 1.00
7 1.00
8 1.00
9 1.00
10 1.00
11 1.00
12 1.00

#	copyright 2023 drugdesign.org
#	Creation time:	2024-01-11T10:58:44Z

@<TRIPOS>MOLECULE
propanol_360.sd
   12    11     0 0 0
SMALL
USER_CHARGES


@<TRIPOS>ATOM
      1 H1            0.000000    0.000000    0.000000 H        1 SUBUNIT    0.2100
      2 C2            2.945200    1.441100   -0.000700 C.3      1 SUBUNIT   -0.0327
      3 C3            1.414900    1.350200    0.000000 C.3      1 SUBUNIT    0.0429
      4 O4            0.950000    0.000000    0.000000 O.3      1 SUBUNIT   -0.3962
      5 C5            3.565800    0.855400    1.272800 C.3      1 SUBUNIT   -0.0632
      6 H6            3.197200    1.403000    2.162700 H        1 SUBUNIT    0.0231
      7 H7            3.292900   -0.213900    1.372400 H        1 SUBUNIT    0.0231
      8 H8            4.669800    0.940500    1.232300 H        1 SUBUNIT    0.0231
      9 H9            3.347900    0.911800   -0.886900 H        1 SUBUNIT    0.0287
     10 H10           3.253900    2.499500   -0.110800 H        1 SUBUNIT    0.0287
     11 H11           1.011300    1.881500   -0.884600 H        1 SUBUNIT    0.0563
     12 H12           1.012200    1.881200    0.885100 H        1 SUBUNIT    0.0563
@<TRIPOS>BOND
     1    1    4 1
     2    2    5 1
     3    2    3 1
     4    2    9 1
     5    2   10 1
     6    3    4 1
     7    3   11 1
     8    3   12 1
     9    5    6 1
    10    5    7 1
    11    5    8 1
@<SCITEGIC>ATOM_PROPERTY
Formal Charge
SciTegic.value.StringValue
1 0
2 0
3 0
4 0
5 0
6 0
7 0
8 0
9 0
10 0
11 0
12 0

@<SCITEGIC>ATOM_PROPERTY
pdb_tempFactor
SciTegic.value.DoubleValue
1 0.00
2 0.00
3 0.00
4 0.00
5 0.00
6 0.00
7 0.00
8 0.00
9 0.00
10 0.00
11 0.00
12 0.00

@<SCITEGIC>ATOM_PROPERTY
pdb_occupancy
SciTegic.value.DoubleValue
1 1.00
2 1.00
3 1.00
4 1.00
5 1.00
6 1.00
7 1.00
8 1.00
9 1.00
10 1.00
11 1.00
12 1.00

#	copyright 2023 drugdesign.org
#	Creation time:	2024-01-11T10:58:44Z

@<TRIPOS>MOLECULE
propanol_360.sd
   12    11     0 0 0
SMALL
USER_CHARGES


@<TRIPOS>ATOM
      1 H1            0.000000    0.000000    0.000000 H        1 SUBUNIT    0.2100
      2 C2            2.945200    1.441100   -0.000700 C.3      1 SUBUNIT   -0.0327
      3 C3            1.414900    1.350200    0.000000 C.3      1 SUBUNIT    0.0429
      4 O4            0.950000    0.000000    0.000000 O.3      1 SUBUNIT   -0.3962
      5 C5            3.567100    0.833300    1.261800 C.3      1 SUBUNIT   -0.0632
      6 H6            3.199400    1.365300    2.161400 H        1 SUBUNIT    0.0231
      7 H7            3.294300   -0.237500    1.343000 H        1 SUBUNIT    0.0231
      8 H8            4.671100    0.919100    1.221600 H        1 SUBUNIT    0.0231
      9 H9            3.346900    0.927300   -0.896400 H        1 SUBUNIT    0.0287
     10 H10           3.253800    2.501300   -0.092700 H        1 SUBUNIT    0.0287
     11 H11           1.011300    1.881500   -0.884600 H        1 SUBUNIT    0.0563
     12 H12           1.012200    1.881200    0.885100 H        1 SUBUNIT    0.0563
@<TRIPOS>BOND
     1    1    4 1
     2    2    5 1
     3    2    3 1
     4    2    9 1
     5    2   10 1
     6    3    4 1
     7    3   11 1
     8    3   12 1
     9    5    6 1
    10    5    7 1
    11    5    8 1
@<SCITEGIC>ATOM_PROPERTY
Formal Charge
SciTegic.value.StringValue
1 0
2 0
3 0
4 0
5 0
6 0
7 0
8 0
9 0
10 0
11 0
12 0

@<SCITEGIC>ATOM_PROPERTY
pdb_tempFactor
SciTegic.value.DoubleValue
1 0.00
2 0.00
3 0.00
4 0.00
5 0.00
6 0.00
7 0.00
8 0.00
9 0.00
10 0.00
11 0.00
12 0.00

@<SCITEGIC>ATOM_PROPERTY
pdb_occupancy
SciTegic.value.DoubleValue
1 1.00
2 1.00
3 1.00
4 1.00
5 1.00
6 1.00
7 1.00
8 1.00
9 1.00
10 1.00
11 1.00
12 1.00

#	copyright 2023 drugdesign.org
#	Creation time:	2024-01-11T10:58:44Z

@<TRIPOS>MOLECULE
propanol_360.sd
   12    11     0 0 0
SMALL
USER_CHARGES


@<TRIPOS>ATOM
      1 H1            0.000000    0.000000    0.000000 H        1 SUBUNIT    0.2100
      2 C2            2.945200    1.441100   -0.000700 C.3      1 SUBUNIT   -0.0327
      3 C3            1.414900    1.350200    0.000000 C.3      1 SUBUNIT    0.0429
      4 O4            0.950000    0.000000    0.000000 O.3      1 SUBUNIT   -0.3962
      5 C5            3.568400    0.811400    1.250300 C.3      1 SUBUNIT   -0.0632
      6 H6            3.201700    1.327700    2.159500 H        1 SUBUNIT    0.0231
      7 H7            3.295600   -0.260700    1.313200 H        1 SUBUNIT    0.0231
      8 H8            4.672300    0.897900    1.210600 H        1 SUBUNIT    0.0231
      9 H9            3.346000    0.943000   -0.905600 H        1 SUBUNIT    0.0287
     10 H10           3.253700    2.502700   -0.074500 H        1 SUBUNIT    0.0287
     11 H11           1.011300    1.881500   -0.884600 H        1 SUBUNIT    0.0563
     12 H12           1.012200    1.881200    0.885100 H        1 SUBUNIT    0.0563
@<TRIPOS>BOND
     1    1    4 1
     2    2    5 1
     3    2    3 1
     4    2    9 1
     5    2   10 1
     6    3    4 1
     7    3   11 1
     8    3   12 1
     9    5    6 1
    10    5    7 1
    11    5    8 1
@<SCITEGIC>ATOM_PROPERTY
Formal Charge
SciTegic.value.StringValue
1 0
2 0
3 0
4 0
5 0
6 0
7 0
8 0
9 0
10 0
11 0
12 0

@<SCITEGIC>ATOM_PROPERTY
pdb_tempFactor
SciTegic.value.DoubleValue
1 0.00
2 0.00
3 0.00
4 0.00
5 0.00
6 0.00
7 0.00
8 0.00
9 0.00
10 0.00
11 0.00
12 0.00

@<SCITEGIC>ATOM_PROPERTY
pdb_occupancy
SciTegic.value.DoubleValue
1 1.00
2 1.00
3 1.00
4 1.00
5 1.00
6 1.00
7 1.00
8 1.00
9 1.00
10 1.00
11 1.00
12 1.00

#	copyright 2023 drugdesign.org
#	Creation time:	2024-01-11T10:58:44Z

@<TRIPOS>MOLECULE
propanol_360.sd
   12    11     0 0 0
SMALL
USER_CHARGES


@<TRIPOS>ATOM
      1 H1            0.000000    0.000000    0.000000 H        1 SUBUNIT    0.2100
      2 C2            2.945200    1.441100   -0.000700 C.3      1 SUBUNIT   -0.0327
      3 C3            1.414900    1.350200    0.000000 C.3      1 SUBUNIT    0.0429
      4 O4            0.950000    0.000000    0.000000 O.3      1 SUBUNIT   -0.3962
      5 C5            3.569700    0.789700    1.238500 C.3      1 SUBUNIT   -0.0632
      6 H6            3.203900    1.290100    2.156900 H        1 SUBUNIT    0.0231
      7 H7            3.297000   -0.283300    1.283000 H        1 SUBUNIT    0.0231
      8 H8            4.673600    0.876900    1.199100 H        1 SUBUNIT    0.0231
      9 H9            3.345100    0.958800   -0.914600 H        1 SUBUNIT    0.0287
     10 H10           3.253700    2.503900   -0.056400 H        1 SUBUNIT    0.0287
     11 H11           1.011300    1.881500   -0.884600 H        1 SUBUNIT    0.0563
     12 H12           1.012200    1.881200    0.885100 H        1 SUBUNIT    0.0563
@<TRIPOS>BOND
     1    1    4 1
     2    2    5 1
     3    2    3 1
     4    2    9 1
     5    2   10 1
     6    3    4 1
     7    3   11 1
     8    3   12 1
     9    5    6 1
    10    5    7 1
    11    5    8 1
@<SCITEGIC>ATOM_PROPERTY
Formal Charge
SciTegic.value.StringValue
1 0
2 0
3 0
4 0
5 0
6 0
7 0
8 0
9 0
10 0
11 0
12 0

@<SCITEGIC>ATOM_PROPERTY
pdb_tempFactor
SciTegic.value.DoubleValue
1 0.00
2 0.00
3 0.00
4 0.00
5 0.00
6 0.00
7 0.00
8 0.00
9 0.00
10 0.00
11 0.00
12 0.00

@<SCITEGIC>ATOM_PROPERTY
pdb_occupancy
SciTegic.value.DoubleValue
1 1.00
2 1.00
3 1.00
4 1.00
5 1.00
6 1.00
7 1.00
8 1.00
9 1.00
10 1.00
11 1.00
12 1.00

#	copyright 2023 drugdesign.org
#	Creation time:	2024-01-11T10:58:44Z

@<TRIPOS>MOLECULE
propanol_360.sd
   12    11     0 0 0
SMALL
USER_CHARGES


@<TRIPOS>ATOM
      1 H1            0.000000    0.000000    0.000000 H        1 SUBUNIT    0.2100
      2 C2            2.945200    1.441100   -0.000700 C.3      1 SUBUNIT   -0.0327
      3 C3            1.414900    1.350200    0.000000 C.3      1 SUBUNIT    0.0429
      4 O4            0.950000    0.000000    0.000000 O.3      1 SUBUNIT   -0.3962
      5 C5            3.571000    0.768200    1.226300 C.3      1 SUBUNIT   -0.0632
      6 H6            3.206100    1.252500    2.153700 H        1 SUBUNIT    0.0231
      7 H7            3.298300   -0.305400    1.252400 H        1 SUBUNIT    0.0231
      8 H8            4.674800    0.856100    1.187300 H        1 SUBUNIT    0.0231
      9 H9            3.344100    0.974800   -0.923300 H        1 SUBUNIT    0.0287
     10 H10           3.253600    2.504700   -0.038200 H        1 SUBUNIT    0.0287
     11 H11           1.011300    1.881500   -0.884600 H        1 SUBUNIT    0.0563
     12 H12           1.012200    1.881200    0.885100 H        1 SUBUNIT    0.0563
@<TRIPOS>BOND
     1    1    4 1
     2    2    5 1
     3    2    3 1
     4    2    9 1
     5    2   10 1
     6    3    4 1
     7    3   11 1
     8    3   12 1
     9    5    6 1
    10    5    7 1
    11    5    8 1
@<SCITEGIC>ATOM_PROPERTY
Formal Charge
SciTegic.value.StringValue
1 0
2 0
3 0
4 0
5 0
6 0
7 0
8 0
9 0
10 0
11 0
12 0

@<SCITEGIC>ATOM_PROPERTY
pdb_tempFactor
SciTegic.value.DoubleValue
1 0.00
2 0.00
3 0.00
4 0.00
5 0.00
6 0.00
7 0.00
8 0.00
9 0.00
10 0.00
11 0.00
12 0.00

@<SCITEGIC>ATOM_PROPERTY
pdb_occupancy
SciTegic.value.DoubleValue
1 1.00
2 1.00
3 1.00
4 1.00
5 1.00
6 1.00
7 1.00
8 1.00
9 1.00
10 1.00
11 1.00
12 1.00

#	copyright 2023 drugdesign.org
#	Creation time:	2024-01-11T10:58:44Z

@<TRIPOS>MOLECULE
propanol_360.sd
   12    11     0 0 0
SMALL
USER_CHARGES


@<TRIPOS>ATOM
      1 H1            0.000000    0.000000    0.000000 H        1 SUBUNIT    0.2100
      2 C2            2.945200    1.441100   -0.000700 C.3      1 SUBUNIT   -0.0327
      3 C3            1.414900    1.350200    0.000000 C.3      1 SUBUNIT    0.0429
      4 O4            0.950000    0.000000    0.000000 O.3      1 SUBUNIT   -0.3962
      5 C5            3.572200    0.746900    1.213800 C.3      1 SUBUNIT   -0.0632
      6 H6            3.208300    1.215000    2.149800 H        1 SUBUNIT    0.0231
      7 H7            3.299500   -0.327000    1.221400 H        1 SUBUNIT    0.0231
      8 H8            4.676000    0.835500    1.175200 H        1 SUBUNIT    0.0231
      9 H9            3.343100    0.991000   -0.931700 H        1 SUBUNIT    0.0287
     10 H10           3.253600    2.505200   -0.019900 H        1 SUBUNIT    0.0287
     11 H11           1.011300    1.881500   -0.884600 H        1 SUBUNIT    0.0563
     12 H12           1.012200    1.881200    0.885100 H        1 SUBUNIT    0.0563
@<TRIPOS>BOND
     1    1    4 1
     2    2    5 1
     3    2    3 1
     4    2    9 1
     5    2   10 1
     6    3    4 1
     7    3   11 1
     8    3   12 1
     9    5    6 1
    10    5    7 1
    11    5    8 1
@<SCITEGIC>ATOM_PROPERTY
Formal Charge
SciTegic.value.StringValue
1 0
2 0
3 0
4 0
5 0
6 0
7 0
8 0
9 0
10 0
11 0
12 0

@<SCITEGIC>ATOM_PROPERTY
pdb_tempFactor
SciTegic.value.DoubleValue
1 0.00
2 0.00
3 0.00
4 0.00
5 0.00
6 0.00
7 0.00
8 0.00
9 0.00
10 0.00
11 0.00
12 0.00

@<SCITEGIC>ATOM_PROPERTY
pdb_occupancy
SciTegic.value.DoubleValue
1 1.00
2 1.00
3 1.00
4 1.00
5 1.00
6 1.00
7 1.00
8 1.00
9 1.00
10 1.00
11 1.00
12 1.00

#	copyright 2023 drugdesign.org
#	Creation time:	2024-01-11T10:58:44Z

@<TRIPOS>MOLECULE
propanol_360.sd
   12    11     0 0 0
SMALL
USER_CHARGES


@<TRIPOS>ATOM
      1 H1            0.000000    0.000000    0.000000 H        1 SUBUNIT    0.2100
      2 C2            2.945200    1.441100   -0.000700 C.3      1 SUBUNIT   -0.0327
      3 C3            1.414900    1.350200    0.000000 C.3      1 SUBUNIT    0.0429
      4 O4            0.950000    0.000000    0.000000 O.3      1 SUBUNIT   -0.3962
      5 C5            3.573500    0.725900    1.200900 C.3      1 SUBUNIT   -0.0632
      6 H6            3.210600    1.177600    2.145300 H        1 SUBUNIT    0.0231
      7 H7            3.300800   -0.348000    1.190000 H        1 SUBUNIT    0.0231
      8 H8            4.677200    0.815100    1.162600 H        1 SUBUNIT    0.0231
      9 H9            3.342200    1.007300   -0.939800 H        1 SUBUNIT    0.0287
     10 H10           3.253600    2.505300   -0.001700 H        1 SUBUNIT    0.0287
     11 H11           1.011300    1.881500   -0.884600 H        1 SUBUNIT    0.0563
     12 H12           1.012200    1.881200    0.885100 H        1 SUBUNIT    0.0563
@<TRIPOS>BOND
     1    1    4 1
     2    2    5 1
     3    2    3 1
     4    2    9 1
     5    2   10 1
     6    3    4 1
     7    3   11 1
     8    3   12 1
     9    5    6 1
    10    5    7 1
    11    5    8 1
@<SCITEGIC>ATOM_PROPERTY
Formal Charge
SciTegic.value.StringValue
1 0
2 0
3 0
4 0
5 0
6 0
7 0
8 0
9 0
10 0
11 0
12 0

@<SCITEGIC>ATOM_PROPERTY
pdb_tempFactor
SciTegic.value.DoubleValue
1 0.00
2 0.00
3 0.00
4 0.00
5 0.00
6 0.00
7 0.00
8 0.00
9 0.00
10 0.00
11 0.00
12 0.00

@<SCITEGIC>ATOM_PROPERTY
pdb_occupancy
SciTegic.value.DoubleValue
1 1.00
2 1.00
3 1.00
4 1.00
5 1.00
6 1.00
7 1.00
8 1.00
9 1.00
10 1.00
11 1.00
12 1.00

#	copyright 2023 drugdesign.org
#	Creation time:	2024-01-11T10:58:44Z

@<TRIPOS>MOLECULE
propanol_360.sd
   12    11     0 0 0
SMALL
USER_CHARGES


@<TRIPOS>ATOM
      1 H1            0.000000    0.000000    0.000000 H        1 SUBUNIT    0.2100
      2 C2            2.945200    1.441100   -0.000700 C.3      1 SUBUNIT   -0.0327
      3 C3            1.414900    1.350200    0.000000 C.3      1 SUBUNIT    0.0429
      4 O4            0.950000    0.000000    0.000000 O.3      1 SUBUNIT   -0.3962
      5 C5            3.574700    0.705100    1.187600 C.3      1 SUBUNIT   -0.0632
      6 H6            3.212800    1.140200    2.140100 H        1 SUBUNIT    0.0231
      7 H7            3.302000   -0.368500    1.158300 H        1 SUBUNIT    0.0231
      8 H8            4.678400    0.794900    1.149800 H        1 SUBUNIT    0.0231
      9 H9            3.341200    1.023700   -0.947600 H        1 SUBUNIT    0.0287
     10 H10           3.253600    2.505200    0.016500 H        1 SUBUNIT    0.0287
     11 H11           1.011300    1.881500   -0.884600 H        1 SUBUNIT    0.0563
     12 H12           1.012200    1.881200    0.885100 H        1 SUBUNIT    0.0563
@<TRIPOS>BOND
     1    1    4 1
     2    2    5 1
     3    2    3 1
     4    2    9 1
     5    2   10 1
     6    3    4 1
     7    3   11 1
     8    3   12 1
     9    5    6 1
    10    5    7 1
    11    5    8 1
@<SCITEGIC>ATOM_PROPERTY
Formal Charge
SciTegic.value.StringValue
1 0
2 0
3 0
4 0
5 0
6 0
7 0
8 0
9 0
10 0
11 0
12 0

@<SCITEGIC>ATOM_PROPERTY
pdb_tempFactor
SciTegic.value.DoubleValue
1 0.00
2 0.00
3 0.00
4 0.00
5 0.00
6 0.00
7 0.00
8 0.00
9 0.00
10 0.00
11 0.00
12 0.00

@<SCITEGIC>ATOM_PROPERTY
pdb_occupancy
SciTegic.value.DoubleValue
1 1.00
2 1.00
3 1.00
4 1.00
5 1.00
6 1.00
7 1.00
8 1.00
9 1.00
10 1.00
11 1.00
12 1.00

#	copyright 2023 drugdesign.org
#	Creation time:	2024-01-11T10:58:44Z

@<TRIPOS>MOLECULE
propanol_360.sd
   12    11     0 0 0
SMALL
USER_CHARGES


@<TRIPOS>ATOM
      1 H1            0.000000    0.000000    0.000000 H        1 SUBUNIT    0.2100
      2 C2            2.945200    1.441100   -0.000700 C.3      1 SUBUNIT   -0.0327
      3 C3            1.414900    1.350200    0.000000 C.3      1 SUBUNIT    0.0429
      4 O4            0.950000    0.000000    0.000000 O.3      1 SUBUNIT   -0.3962
      5 C5            3.575900    0.684500    1.173900 C.3      1 SUBUNIT   -0.0632
      6 H6            3.215000    1.103000    2.134300 H        1 SUBUNIT    0.0231
      7 H7            3.303100   -0.388400    1.126200 H        1 SUBUNIT    0.0231
      8 H8            4.679600    0.775000    1.136500 H        1 SUBUNIT    0.0231
      9 H9            3.340200    1.040300   -0.955100 H        1 SUBUNIT    0.0287
     10 H10           3.253600    2.504700    0.034700 H        1 SUBUNIT    0.0287
     11 H11           1.011300    1.881500   -0.884600 H        1 SUBUNIT    0.0563
     12 H12           1.012200    1.881200    0.885100 H        1 SUBUNIT    0.0563
@<TRIPOS>BOND
     1    1    4 1
     2    2    5 1
     3    2    3 1
     4    2    9 1
     5    2   10 1
     6    3    4 1
     7    3   11 1
     8    3   12 1
     9    5    6 1
    10    5    7 1
    11    5    8 1
@<SCITEGIC>ATOM_PROPERTY
Formal Charge
SciTegic.value.StringValue
1 0
2 0
3 0
4 0
5 0
6 0
7 0
8 0
9 0
10 0
11 0
12 0

@<SCITEGIC>ATOM_PROPERTY
pdb_tempFactor
SciTegic.value.DoubleValue
1 0.00
2 0.00
3 0.00
4 0.00
5 0.00
6 0.00
7 0.00
8 0.00
9 0.00
10 0.00
11 0.00
12 0.00

@<SCITEGIC>ATOM_PROPERTY
pdb_occupancy
SciTegic.value.DoubleValue
1 1.00
2 1.00
3 1.00
4 1.00
5 1.00
6 1.00
7 1.00
8 1.00
9 1.00
10 1.00
11 1.00
12 1.00

#	copyright 2023 drugdesign.org
#	Creation time:	2024-01-11T10:58:44Z

@<TRIPOS>MOLECULE
propanol_360.sd
   12    11     0 0 0
SMALL
USER_CHARGES


@<TRIPOS>ATOM
      1 H1            0.000000    0.000000    0.000000 H        1 SUBUNIT    0.2100
      2 C2            2.945200    1.441100   -0.000700 C.3      1 SUBUNIT   -0.0327
      3 C3            1.414900    1.350200    0.000000 C.3      1 SUBUNIT    0.0429
      4 O4            0.950000    0.000000    0.000000 O.3      1 SUBUNIT   -0.3962
      5 C5            3.577100    0.664100    1.159900 C.3      1 SUBUNIT   -0.0632
      6 H6            3.217200    1.065800    2.127800 H        1 SUBUNIT    0.0231
      7 H7            3.304300   -0.407700    1.093800 H        1 SUBUNIT    0.0231
      8 H8            4.680700    0.755200    1.123000 H        1 SUBUNIT    0.0231
      9 H9            3.339200    1.057000   -0.962400 H        1 SUBUNIT    0.0287
     10 H10           3.253700    2.504000    0.052900 H        1 SUBUNIT    0.0287
     11 H11           1.011300    1.881500   -0.884600 H        1 SUBUNIT    0.0563
     12 H12           1.012200    1.881200    0.885100 H        1 SUBUNIT    0.0563
@<TRIPOS>BOND
     1    1    4 1
     2    2    5 1
     3    2    3 1
     4    2    9 1
     5    2   10 1
     6    3    4 1
     7    3   11 1
     8    3   12 1
     9    5    6 1
    10    5    7 1
    11    5    8 1
@<SCITEGIC>ATOM_PROPERTY
Formal Charge
SciTegic.value.StringValue
1 0
2 0
3 0
4 0
5 0
6 0
7 0
8 0
9 0
10 0
11 0
12 0

@<SCITEGIC>ATOM_PROPERTY
pdb_tempFactor
SciTegic.value.DoubleValue
1 0.00
2 0.00
3 0.00
4 0.00
5 0.00
6 0.00
7 0.00
8 0.00
9 0.00
10 0.00
11 0.00
12 0.00

@<SCITEGIC>ATOM_PROPERTY
pdb_occupancy
SciTegic.value.DoubleValue
1 1.00
2 1.00
3 1.00
4 1.00
5 1.00
6 1.00
7 1.00
8 1.00
9 1.00
10 1.00
11 1.00
12 1.00

#	copyright 2023 drugdesign.org
#	Creation time:	2024-01-11T10:58:44Z

@<TRIPOS>MOLECULE
propanol_360.sd
   12    11     0 0 0
SMALL
USER_CHARGES


@<TRIPOS>ATOM
      1 H1            0.000000    0.000000    0.000000 H        1 SUBUNIT    0.2100
      2 C2            2.945200    1.441100   -0.000700 C.3      1 SUBUNIT   -0.0327
      3 C3            1.414900    1.350200    0.000000 C.3      1 SUBUNIT    0.0429
      4 O4            0.950000    0.000000    0.000000 O.3      1 SUBUNIT   -0.3962
      5 C5            3.578300    0.644000    1.145500 C.3      1 SUBUNIT   -0.0632
      6 H6            3.219400    1.028800    2.120600 H        1 SUBUNIT    0.0231
      7 H7            3.305400   -0.426500    1.061100 H        1 SUBUNIT    0.0231
      8 H8            4.681900    0.735800    1.109100 H        1 SUBUNIT    0.0231
      9 H9            3.338200    1.073800   -0.969300 H        1 SUBUNIT    0.0287
     10 H10           3.253800    2.502900    0.071100 H        1 SUBUNIT    0.0287
     11 H11           1.011300    1.881500   -0.884600 H        1 SUBUNIT    0.0563
     12 H12           1.012200    1.881200    0.885100 H        1 SUBUNIT    0.0563
@<TRIPOS>BOND
     1    1    4 1
     2    2    5 1
     3    2    3 1
     4    2    9 1
     5    2   10 1
     6    3    4 1
     7    3   11 1
     8    3   12 1
     9    5    6 1
    10    5    7 1
    11    5    8 1
@<SCITEGIC>ATOM_PROPERTY
Formal Charge
SciTegic.value.StringValue
1 0
2 0
3 0
4 0
5 0
6 0
7 0
8 0
9 0
10 0
11 0
12 0

@<SCITEGIC>ATOM_PROPERTY
pdb_tempFactor
SciTegic.value.DoubleValue
1 0.00
2 0.00
3 0.00
4 0.00
5 0.00
6 0.00
7 0.00
8 0.00
9 0.00
10 0.00
11 0.00
12 0.00

@<SCITEGIC>ATOM_PROPERTY
pdb_occupancy
SciTegic.value.DoubleValue
1 1.00
2 1.00
3 1.00
4 1.00
5 1.00
6 1.00
7 1.00
8 1.00
9 1.00
10 1.00
11 1.00
12 1.00

#	copyright 2023 drugdesign.org
#	Creation time:	2024-01-11T10:58:44Z

@<TRIPOS>MOLECULE
propanol_360.sd
   12    11     0 0 0
SMALL
USER_CHARGES


@<TRIPOS>ATOM
      1 H1            0.000000    0.000000    0.000000 H        1 SUBUNIT    0.2100
      2 C2            2.945200    1.441100   -0.000700 C.3      1 SUBUNIT   -0.0327
      3 C3            1.414900    1.350200    0.000000 C.3      1 SUBUNIT    0.0429
      4 O4            0.950000    0.000000    0.000000 O.3      1 SUBUNIT   -0.3962
      5 C5            3.579500    0.624200    1.130800 C.3      1 SUBUNIT   -0.0632
      6 H6            3.221600    0.991900    2.112800 H        1 SUBUNIT    0.0231
      7 H7            3.306400   -0.444700    1.028000 H        1 SUBUNIT    0.0231
      8 H8            4.683000    0.716600    1.094800 H        1 SUBUNIT    0.0231
      9 H9            3.337200    1.090700   -0.976000 H        1 SUBUNIT    0.0287
     10 H10           3.253900    2.501400    0.089300 H        1 SUBUNIT    0.0287
     11 H11           1.011300    1.881500   -0.884600 H        1 SUBUNIT    0.0563
     12 H12           1.012200    1.881200    0.885100 H        1 SUBUNIT    0.0563
@<TRIPOS>BOND
     1    1    4 1
     2    2    5 1
     3    2    3 1
     4    2    9 1
     5    2   10 1
     6    3    4 1
     7    3   11 1
     8    3   12 1
     9    5    6 1
    10    5    7 1
    11    5    8 1
@<SCITEGIC>ATOM_PROPERTY
Formal Charge
SciTegic.value.StringValue
1 0
2 0
3 0
4 0
5 0
6 0
7 0
8 0
9 0
10 0
11 0
12 0

@<SCITEGIC>ATOM_PROPERTY
pdb_tempFactor
SciTegic.value.DoubleValue
1 0.00
2 0.00
3 0.00
4 0.00
5 0.00
6 0.00
7 0.00
8 0.00
9 0.00
10 0.00
11 0.00
12 0.00

@<SCITEGIC>ATOM_PROPERTY
pdb_occupancy
SciTegic.value.DoubleValue
1 1.00
2 1.00
3 1.00
4 1.00
5 1.00
6 1.00
7 1.00
8 1.00
9 1.00
10 1.00
11 1.00
12 1.00

#	copyright 2023 drugdesign.org
#	Creation time:	2024-01-11T10:58:44Z

@<TRIPOS>MOLECULE
propanol_360.sd
   12    11     0 0 0
SMALL
USER_CHARGES


@<TRIPOS>ATOM
      1 H1            0.000000    0.000000    0.000000 H        1 SUBUNIT    0.2100
      2 C2            2.945200    1.441100   -0.000700 C.3      1 SUBUNIT   -0.0327
      3 C3            1.414900    1.350200    0.000000 C.3      1 SUBUNIT    0.0429
      4 O4            0.950000    0.000000    0.000000 O.3      1 SUBUNIT   -0.3962
      5 C5            3.580600    0.604600    1.115700 C.3      1 SUBUNIT   -0.0632
      6 H6            3.223800    0.955200    2.104400 H        1 SUBUNIT    0.0231
      7 H7            3.307500   -0.462400    0.994600 H        1 SUBUNIT    0.0231
      8 H8            4.684200    0.697600    1.080200 H        1 SUBUNIT    0.0231
      9 H9            3.336200    1.107700   -0.982400 H        1 SUBUNIT    0.0287
     10 H10           3.254000    2.499700    0.107400 H        1 SUBUNIT    0.0287
     11 H11           1.011300    1.881500   -0.884600 H        1 SUBUNIT    0.0563
     12 H12           1.012200    1.881200    0.885100 H        1 SUBUNIT    0.0563
@<TRIPOS>BOND
     1    1    4 1
     2    2    5 1
     3    2    3 1
     4    2    9 1
     5    2   10 1
     6    3    4 1
     7    3   11 1
     8    3   12 1
     9    5    6 1
    10    5    7 1
    11    5    8 1
@<SCITEGIC>ATOM_PROPERTY
Formal Charge
SciTegic.value.StringValue
1 0
2 0
3 0
4 0
5 0
6 0
7 0
8 0
9 0
10 0
11 0
12 0

@<SCITEGIC>ATOM_PROPERTY
pdb_tempFactor
SciTegic.value.DoubleValue
1 0.00
2 0.00
3 0.00
4 0.00
5 0.00
6 0.00
7 0.00
8 0.00
9 0.00
10 0.00
11 0.00
12 0.00

@<SCITEGIC>ATOM_PROPERTY
pdb_occupancy
SciTegic.value.DoubleValue
1 1.00
2 1.00
3 1.00
4 1.00
5 1.00
6 1.00
7 1.00
8 1.00
9 1.00
10 1.00
11 1.00
12 1.00

#	copyright 2023 drugdesign.org
#	Creation time:	2024-01-11T10:58:44Z

@<TRIPOS>MOLECULE
propanol_360.sd
   12    11     0 0 0
SMALL
USER_CHARGES


@<TRIPOS>ATOM
      1 H1            0.000000    0.000000    0.000000 H        1 SUBUNIT    0.2100
      2 C2            2.945200    1.441100   -0.000700 C.3      1 SUBUNIT   -0.0327
      3 C3            1.414900    1.350200    0.000000 C.3      1 SUBUNIT    0.0429
      4 O4            0.950000    0.000000    0.000000 O.3      1 SUBUNIT   -0.3962
      5 C5            3.581800    0.585300    1.100300 C.3      1 SUBUNIT   -0.0632
      6 H6            3.225900    0.918600    2.095300 H        1 SUBUNIT    0.0231
      7 H7            3.308500   -0.479400    0.960900 H        1 SUBUNIT    0.0231
      8 H8            4.685300    0.678900    1.065300 H        1 SUBUNIT    0.0231
      9 H9            3.335200    1.124900   -0.988400 H        1 SUBUNIT    0.0287
     10 H10           3.254100    2.497700    0.125500 H        1 SUBUNIT    0.0287
     11 H11           1.011300    1.881500   -0.884600 H        1 SUBUNIT    0.0563
     12 H12           1.012200    1.881200    0.885100 H        1 SUBUNIT    0.0563
@<TRIPOS>BOND
     1    1    4 1
     2    2    5 1
     3    2    3 1
     4    2    9 1
     5    2   10 1
     6    3    4 1
     7    3   11 1
     8    3   12 1
     9    5    6 1
    10    5    7 1
    11    5    8 1
@<SCITEGIC>ATOM_PROPERTY
Formal Charge
SciTegic.value.StringValue
1 0
2 0
3 0
4 0
5 0
6 0
7 0
8 0
9 0
10 0
11 0
12 0

@<SCITEGIC>ATOM_PROPERTY
pdb_tempFactor
SciTegic.value.DoubleValue
1 0.00
2 0.00
3 0.00
4 0.00
5 0.00
6 0.00
7 0.00
8 0.00
9 0.00
10 0.00
11 0.00
12 0.00

@<SCITEGIC>ATOM_PROPERTY
pdb_occupancy
SciTegic.value.DoubleValue
1 1.00
2 1.00
3 1.00
4 1.00
5 1.00
6 1.00
7 1.00
8 1.00
9 1.00
10 1.00
11 1.00
12 1.00

#	copyright 2023 drugdesign.org
#	Creation time:	2024-01-11T10:58:44Z

@<TRIPOS>MOLECULE
propanol_360.sd
   12    11     0 0 0
SMALL
USER_CHARGES


@<TRIPOS>ATOM
      1 H1            0.000000    0.000000    0.000000 H        1 SUBUNIT    0.2100
      2 C2            2.945200    1.441100   -0.000700 C.3      1 SUBUNIT   -0.0327
      3 C3            1.414900    1.350200    0.000000 C.3      1 SUBUNIT    0.0429
      4 O4            0.950000    0.000000    0.000000 O.3      1 SUBUNIT   -0.3962
      5 C5            3.582900    0.566200    1.084600 C.3      1 SUBUNIT   -0.0632
      6 H6            3.228100    0.882100    2.085600 H        1 SUBUNIT    0.0231
      7 H7            3.309400   -0.495900    0.926900 H        1 SUBUNIT    0.0231
      8 H8            4.686300    0.660400    1.050000 H        1 SUBUNIT    0.0231
      9 H9            3.334100    1.142200   -0.994200 H        1 SUBUNIT    0.0287
     10 H10           3.254300    2.495300    0.143600 H        1 SUBUNIT    0.0287
     11 H11           1.011300    1.881500   -0.884600 H        1 SUBUNIT    0.0563
     12 H12           1.012200    1.881200    0.885100 H        1 SUBUNIT    0.0563
@<TRIPOS>BOND
     1    1    4 1
     2    2    5 1
     3    2    3 1
     4    2    9 1
     5    2   10 1
     6    3    4 1
     7    3   11 1
     8    3   12 1
     9    5    6 1
    10    5    7 1
    11    5    8 1
@<SCITEGIC>ATOM_PROPERTY
Formal Charge
SciTegic.value.StringValue
1 0
2 0
3 0
4 0
5 0
6 0
7 0
8 0
9 0
10 0
11 0
12 0

@<SCITEGIC>ATOM_PROPERTY
pdb_tempFactor
SciTegic.value.DoubleValue
1 0.00
2 0.00
3 0.00
4 0.00
5 0.00
6 0.00
7 0.00
8 0.00
9 0.00
10 0.00
11 0.00
12 0.00

@<SCITEGIC>ATOM_PROPERTY
pdb_occupancy
SciTegic.value.DoubleValue
1 1.00
2 1.00
3 1.00
4 1.00
5 1.00
6 1.00
7 1.00
8 1.00
9 1.00
10 1.00
11 1.00
12 1.00

#	copyright 2023 drugdesign.org
#	Creation time:	2024-01-11T10:58:44Z

@<TRIPOS>MOLECULE
propanol_360.sd
   12    11     0 0 0
SMALL
USER_CHARGES


@<TRIPOS>ATOM
      1 H1            0.000000    0.000000    0.000000 H        1 SUBUNIT    0.2100
      2 C2            2.945200    1.441100   -0.000700 C.3      1 SUBUNIT   -0.0327
      3 C3            1.414900    1.350200    0.000000 C.3      1 SUBUNIT    0.0429
      4 O4            0.950000    0.000000    0.000000 O.3      1 SUBUNIT   -0.3962
      5 C5            3.584000    0.547400    1.068500 C.3      1 SUBUNIT   -0.0632
      6 H6            3.230200    0.845900    2.075300 H        1 SUBUNIT    0.0231
      7 H7            3.310400   -0.511800    0.892700 H        1 SUBUNIT    0.0231
      8 H8            4.687400    0.642200    1.034500 H        1 SUBUNIT    0.0231
      9 H9            3.333100    1.159500   -0.999600 H        1 SUBUNIT    0.0287
     10 H10           3.254400    2.492600    0.161600 H        1 SUBUNIT    0.0287
     11 H11           1.011300    1.881500   -0.884600 H        1 SUBUNIT    0.0563
     12 H12           1.012200    1.881200    0.885100 H        1 SUBUNIT    0.0563
@<TRIPOS>BOND
     1    1    4 1
     2    2    5 1
     3    2    3 1
     4    2    9 1
     5    2   10 1
     6    3    4 1
     7    3   11 1
     8    3   12 1
     9    5    6 1
    10    5    7 1
    11    5    8 1
@<SCITEGIC>ATOM_PROPERTY
Formal Charge
SciTegic.value.StringValue
1 0
2 0
3 0
4 0
5 0
6 0
7 0
8 0
9 0
10 0
11 0
12 0

@<SCITEGIC>ATOM_PROPERTY
pdb_tempFactor
SciTegic.value.DoubleValue
1 0.00
2 0.00
3 0.00
4 0.00
5 0.00
6 0.00
7 0.00
8 0.00
9 0.00
10 0.00
11 0.00
12 0.00

@<SCITEGIC>ATOM_PROPERTY
pdb_occupancy
SciTegic.value.DoubleValue
1 1.00
2 1.00
3 1.00
4 1.00
5 1.00
6 1.00
7 1.00
8 1.00
9 1.00
10 1.00
11 1.00
12 1.00

#	copyright 2023 drugdesign.org
#	Creation time:	2024-01-11T10:58:44Z

@<TRIPOS>MOLECULE
propanol_360.sd
   12    11     0 0 0
SMALL
USER_CHARGES


@<TRIPOS>ATOM
      1 H1            0.000000    0.000000    0.000000 H        1 SUBUNIT    0.2100
      2 C2            2.945200    1.441100   -0.000700 C.3      1 SUBUNIT   -0.0327
      3 C3            1.414900    1.350200    0.000000 C.3      1 SUBUNIT    0.0429
      4 O4            0.950000    0.000000    0.000000 O.3      1 SUBUNIT   -0.3962
      5 C5            3.585100    0.528900    1.052100 C.3      1 SUBUNIT   -0.0632
      6 H6            3.232400    0.809800    2.064300 H        1 SUBUNIT    0.0231
      7 H7            3.311300   -0.527000    0.858100 H        1 SUBUNIT    0.0231
      8 H8            4.688500    0.624300    1.018600 H        1 SUBUNIT    0.0231
      9 H9            3.332100    1.177000   -1.004800 H        1 SUBUNIT    0.0287
     10 H10           3.254600    2.489700    0.179600 H        1 SUBUNIT    0.0287
     11 H11           1.011300    1.881500   -0.884600 H        1 SUBUNIT    0.0563
     12 H12           1.012200    1.881200    0.885100 H        1 SUBUNIT    0.0563
@<TRIPOS>BOND
     1    1    4 1
     2    2    5 1
     3    2    3 1
     4    2    9 1
     5    2   10 1
     6    3    4 1
     7    3   11 1
     8    3   12 1
     9    5    6 1
    10    5    7 1
    11    5    8 1
@<SCITEGIC>ATOM_PROPERTY
Formal Charge
SciTegic.value.StringValue
1 0
2 0
3 0
4 0
5 0
6 0
7 0
8 0
9 0
10 0
11 0
12 0

@<SCITEGIC>ATOM_PROPERTY
pdb_tempFactor
SciTegic.value.DoubleValue
1 0.00
2 0.00
3 0.00
4 0.00
5 0.00
6 0.00
7 0.00
8 0.00
9 0.00
10 0.00
11 0.00
12 0.00

@<SCITEGIC>ATOM_PROPERTY
pdb_occupancy
SciTegic.value.DoubleValue
1 1.00
2 1.00
3 1.00
4 1.00
5 1.00
6 1.00
7 1.00
8 1.00
9 1.00
10 1.00
11 1.00
12 1.00

#	copyright 2023 drugdesign.org
#	Creation time:	2024-01-11T10:58:44Z

@<TRIPOS>MOLECULE
propanol_360.sd
   12    11     0 0 0
SMALL
USER_CHARGES


@<TRIPOS>ATOM
      1 H1            0.000000    0.000000    0.000000 H        1 SUBUNIT    0.2100
      2 C2            2.945200    1.441100   -0.000700 C.3      1 SUBUNIT   -0.0327
      3 C3            1.414900    1.350200    0.000000 C.3      1 SUBUNIT    0.0429
      4 O4            0.950000    0.000000    0.000000 O.3      1 SUBUNIT   -0.3962
      5 C5            3.586200    0.510700    1.035400 C.3      1 SUBUNIT   -0.0632
      6 H6            3.234500    0.773900    2.052700 H        1 SUBUNIT    0.0231
      7 H7            3.312100   -0.541700    0.823300 H        1 SUBUNIT    0.0231
      8 H8            4.689500    0.606700    1.002400 H        1 SUBUNIT    0.0231
      9 H9            3.331000    1.194500   -1.009600 H        1 SUBUNIT    0.0287
     10 H10           3.254800    2.486400    0.197500 H        1 SUBUNIT    0.0287
     11 H11           1.011300    1.881500   -0.884600 H        1 SUBUNIT    0.0563
     12 H12           1.012200    1.881200    0.885100 H        1 SUBUNIT    0.0563
@<TRIPOS>BOND
     1    1    4 1
     2    2    5 1
     3    2    3 1
     4    2    9 1
     5    2   10 1
     6    3    4 1
     7    3   11 1
     8    3   12 1
     9    5    6 1
    10    5    7 1
    11    5    8 1
@<SCITEGIC>ATOM_PROPERTY
Formal Charge
SciTegic.value.StringValue
1 0
2 0
3 0
4 0
5 0
6 0
7 0
8 0
9 0
10 0
11 0
12 0

@<SCITEGIC>ATOM_PROPERTY
pdb_tempFactor
SciTegic.value.DoubleValue
1 0.00
2 0.00
3 0.00
4 0.00
5 0.00
6 0.00
7 0.00
8 0.00
9 0.00
10 0.00
11 0.00
12 0.00

@<SCITEGIC>ATOM_PROPERTY
pdb_occupancy
SciTegic.value.DoubleValue
1 1.00
2 1.00
3 1.00
4 1.00
5 1.00
6 1.00
7 1.00
8 1.00
9 1.00
10 1.00
11 1.00
12 1.00

#	copyright 2023 drugdesign.org
#	Creation time:	2024-01-11T10:58:44Z

@<TRIPOS>MOLECULE
propanol_360.sd
   12    11     0 0 0
SMALL
USER_CHARGES


@<TRIPOS>ATOM
      1 H1            0.000000    0.000000    0.000000 H        1 SUBUNIT    0.2100
      2 C2            2.945200    1.441100   -0.000700 C.3      1 SUBUNIT   -0.0327
      3 C3            1.414900    1.350200    0.000000 C.3      1 SUBUNIT    0.0429
      4 O4            0.950000    0.000000    0.000000 O.3      1 SUBUNIT   -0.3962
      5 C5            3.587200    0.492800    1.018400 C.3      1 SUBUNIT   -0.0632
      6 H6            3.236600    0.738200    2.040400 H        1 SUBUNIT    0.0231
      7 H7            3.312900   -0.555700    0.788300 H        1 SUBUNIT    0.0231
      8 H8            4.690500    0.589300    0.985900 H        1 SUBUNIT    0.0231
      9 H9            3.330000    1.212100   -1.014200 H        1 SUBUNIT    0.0287
     10 H10           3.255000    2.482700    0.215400 H        1 SUBUNIT    0.0287
     11 H11           1.011300    1.881500   -0.884600 H        1 SUBUNIT    0.0563
     12 H12           1.012200    1.881200    0.885100 H        1 SUBUNIT    0.0563
@<TRIPOS>BOND
     1    1    4 1
     2    2    5 1
     3    2    3 1
     4    2    9 1
     5    2   10 1
     6    3    4 1
     7    3   11 1
     8    3   12 1
     9    5    6 1
    10    5    7 1
    11    5    8 1
@<SCITEGIC>ATOM_PROPERTY
Formal Charge
SciTegic.value.StringValue
1 0
2 0
3 0
4 0
5 0
6 0
7 0
8 0
9 0
10 0
11 0
12 0

@<SCITEGIC>ATOM_PROPERTY
pdb_tempFactor
SciTegic.value.DoubleValue
1 0.00
2 0.00
3 0.00
4 0.00
5 0.00
6 0.00
7 0.00
8 0.00
9 0.00
10 0.00
11 0.00
12 0.00

@<SCITEGIC>ATOM_PROPERTY
pdb_occupancy
SciTegic.value.DoubleValue
1 1.00
2 1.00
3 1.00
4 1.00
5 1.00
6 1.00
7 1.00
8 1.00
9 1.00
10 1.00
11 1.00
12 1.00

#	copyright 2023 drugdesign.org
#	Creation time:	2024-01-11T10:58:44Z

@<TRIPOS>MOLECULE
propanol_360.sd
   12    11     0 0 0
SMALL
USER_CHARGES


@<TRIPOS>ATOM
      1 H1            0.000000    0.000000    0.000000 H        1 SUBUNIT    0.2100
      2 C2            2.945200    1.441100   -0.000700 C.3      1 SUBUNIT   -0.0327
      3 C3            1.414900    1.350200    0.000000 C.3      1 SUBUNIT    0.0429
      4 O4            0.950000    0.000000    0.000000 O.3      1 SUBUNIT   -0.3962
      5 C5            3.588300    0.475200    1.001100 C.3      1 SUBUNIT   -0.0632
      6 H6            3.238700    0.702800    2.027600 H        1 SUBUNIT    0.0231
      7 H7            3.313700   -0.569200    0.753000 H        1 SUBUNIT    0.0231
      8 H8            4.691500    0.572300    0.969100 H        1 SUBUNIT    0.0231
      9 H9            3.328900    1.229800   -1.018400 H        1 SUBUNIT    0.0287
     10 H10           3.255300    2.478800    0.233200 H        1 SUBUNIT    0.0287
     11 H11           1.011300    1.881500   -0.884600 H        1 SUBUNIT    0.0563
     12 H12           1.012200    1.881200    0.885100 H        1 SUBUNIT    0.0563
@<TRIPOS>BOND
     1    1    4 1
     2    2    5 1
     3    2    3 1
     4    2    9 1
     5    2   10 1
     6    3    4 1
     7    3   11 1
     8    3   12 1
     9    5    6 1
    10    5    7 1
    11    5    8 1
@<SCITEGIC>ATOM_PROPERTY
Formal Charge
SciTegic.value.StringValue
1 0
2 0
3 0
4 0
5 0
6 0
7 0
8 0
9 0
10 0
11 0
12 0

@<SCITEGIC>ATOM_PROPERTY
pdb_tempFactor
SciTegic.value.DoubleValue
1 0.00
2 0.00
3 0.00
4 0.00
5 0.00
6 0.00
7 0.00
8 0.00
9 0.00
10 0.00
11 0.00
12 0.00

@<SCITEGIC>ATOM_PROPERTY
pdb_occupancy
SciTegic.value.DoubleValue
1 1.00
2 1.00
3 1.00
4 1.00
5 1.00
6 1.00
7 1.00
8 1.00
9 1.00
10 1.00
11 1.00
12 1.00

#	copyright 2023 drugdesign.org
#	Creation time:	2024-01-11T10:58:44Z

@<TRIPOS>MOLECULE
propanol_360.sd
   12    11     0 0 0
SMALL
USER_CHARGES


@<TRIPOS>ATOM
      1 H1            0.000000    0.000000    0.000000 H        1 SUBUNIT    0.2100
      2 C2            2.945200    1.441100   -0.000700 C.3      1 SUBUNIT   -0.0327
      3 C3            1.414900    1.350200    0.000000 C.3      1 SUBUNIT    0.0429
      4 O4            0.950000    0.000000    0.000000 O.3      1 SUBUNIT   -0.3962
      5 C5            3.589300    0.457900    0.983400 C.3      1 SUBUNIT   -0.0632
      6 H6            3.240800    0.667600    2.014100 H        1 SUBUNIT    0.0231
      7 H7            3.314500   -0.582000    0.717500 H        1 SUBUNIT    0.0231
      8 H8            4.692500    0.555500    0.952000 H        1 SUBUNIT    0.0231
      9 H9            3.327900    1.247600   -1.022300 H        1 SUBUNIT    0.0287
     10 H10           3.255500    2.474600    0.250900 H        1 SUBUNIT    0.0287
     11 H11           1.011300    1.881500   -0.884600 H        1 SUBUNIT    0.0563
     12 H12           1.012200    1.881200    0.885100 H        1 SUBUNIT    0.0563
@<TRIPOS>BOND
     1    1    4 1
     2    2    5 1
     3    2    3 1
     4    2    9 1
     5    2   10 1
     6    3    4 1
     7    3   11 1
     8    3   12 1
     9    5    6 1
    10    5    7 1
    11    5    8 1
@<SCITEGIC>ATOM_PROPERTY
Formal Charge
SciTegic.value.StringValue
1 0
2 0
3 0
4 0
5 0
6 0
7 0
8 0
9 0
10 0
11 0
12 0

@<SCITEGIC>ATOM_PROPERTY
pdb_tempFactor
SciTegic.value.DoubleValue
1 0.00
2 0.00
3 0.00
4 0.00
5 0.00
6 0.00
7 0.00
8 0.00
9 0.00
10 0.00
11 0.00
12 0.00

@<SCITEGIC>ATOM_PROPERTY
pdb_occupancy
SciTegic.value.DoubleValue
1 1.00
2 1.00
3 1.00
4 1.00
5 1.00
6 1.00
7 1.00
8 1.00
9 1.00
10 1.00
11 1.00
12 1.00

#	copyright 2023 drugdesign.org
#	Creation time:	2024-01-11T10:58:44Z

@<TRIPOS>MOLECULE
propanol_360.sd
   12    11     0 0 0
SMALL
USER_CHARGES


@<TRIPOS>ATOM
      1 H1            0.000000    0.000000    0.000000 H        1 SUBUNIT    0.2100
      2 C2            2.945200    1.441100   -0.000700 C.3      1 SUBUNIT   -0.0327
      3 C3            1.414900    1.350200    0.000000 C.3      1 SUBUNIT    0.0429
      4 O4            0.950000    0.000000    0.000000 O.3      1 SUBUNIT   -0.3962
      5 C5            3.590300    0.440900    0.965500 C.3      1 SUBUNIT   -0.0632
      6 H6            3.242900    0.632600    2.000000 H        1 SUBUNIT    0.0231
      7 H7            3.315200   -0.594200    0.681700 H        1 SUBUNIT    0.0231
      8 H8            4.693500    0.539100    0.934600 H        1 SUBUNIT    0.0231
      9 H9            3.326800    1.265400   -1.026000 H        1 SUBUNIT    0.0287
     10 H10           3.255800    2.470100    0.268500 H        1 SUBUNIT    0.0287
     11 H11           1.011300    1.881500   -0.884600 H        1 SUBUNIT    0.0563
     12 H12           1.012200    1.881200    0.885100 H        1 SUBUNIT    0.0563
@<TRIPOS>BOND
     1    1    4 1
     2    2    5 1
     3    2    3 1
     4    2    9 1
     5    2   10 1
     6    3    4 1
     7    3   11 1
     8    3   12 1
     9    5    6 1
    10    5    7 1
    11    5    8 1
@<SCITEGIC>ATOM_PROPERTY
Formal Charge
SciTegic.value.StringValue
1 0
2 0
3 0
4 0
5 0
6 0
7 0
8 0
9 0
10 0
11 0
12 0

@<SCITEGIC>ATOM_PROPERTY
pdb_tempFactor
SciTegic.value.DoubleValue
1 0.00
2 0.00
3 0.00
4 0.00
5 0.00
6 0.00
7 0.00
8 0.00
9 0.00
10 0.00
11 0.00
12 0.00

@<SCITEGIC>ATOM_PROPERTY
pdb_occupancy
SciTegic.value.DoubleValue
1 1.00
2 1.00
3 1.00
4 1.00
5 1.00
6 1.00
7 1.00
8 1.00
9 1.00
10 1.00
11 1.00
12 1.00

#	copyright 2023 drugdesign.org
#	Creation time:	2024-01-11T10:58:44Z

@<TRIPOS>MOLECULE
propanol_360.sd
   12    11     0 0 0
SMALL
USER_CHARGES


@<TRIPOS>ATOM
      1 H1            0.000000    0.000000    0.000000 H        1 SUBUNIT    0.2100
      2 C2            2.945200    1.441100   -0.000700 C.3      1 SUBUNIT   -0.0327
      3 C3            1.414900    1.350200    0.000000 C.3      1 SUBUNIT    0.0429
      4 O4            0.950000    0.000000    0.000000 O.3      1 SUBUNIT   -0.3962
      5 C5            3.591300    0.424200    0.947200 C.3      1 SUBUNIT   -0.0632
      6 H6            3.244900    0.597800    1.985300 H        1 SUBUNIT    0.0231
      7 H7            3.315800   -0.605800    0.645800 H        1 SUBUNIT    0.0231
      8 H8            4.694500    0.522900    0.917000 H        1 SUBUNIT    0.0231
      9 H9            3.325700    1.283300   -1.029300 H        1 SUBUNIT    0.0287
     10 H10           3.256100    2.465200    0.286100 H        1 SUBUNIT    0.0287
     11 H11           1.011300    1.881500   -0.884600 H        1 SUBUNIT    0.0563
     12 H12           1.012200    1.881200    0.885100 H        1 SUBUNIT    0.0563
@<TRIPOS>BOND
     1    1    4 1
     2    2    5 1
     3    2    3 1
     4    2    9 1
     5    2   10 1
     6    3    4 1
     7    3   11 1
     8    3   12 1
     9    5    6 1
    10    5    7 1
    11    5    8 1
@<SCITEGIC>ATOM_PROPERTY
Formal Charge
SciTegic.value.StringValue
1 0
2 0
3 0
4 0
5 0
6 0
7 0
8 0
9 0
10 0
11 0
12 0

@<SCITEGIC>ATOM_PROPERTY
pdb_tempFactor
SciTegic.value.DoubleValue
1 0.00
2 0.00
3 0.00
4 0.00
5 0.00
6 0.00
7 0.00
8 0.00
9 0.00
10 0.00
11 0.00
12 0.00

@<SCITEGIC>ATOM_PROPERTY
pdb_occupancy
SciTegic.value.DoubleValue
1 1.00
2 1.00
3 1.00
4 1.00
5 1.00
6 1.00
7 1.00
8 1.00
9 1.00
10 1.00
11 1.00
12 1.00

#	copyright 2023 drugdesign.org
#	Creation time:	2024-01-11T10:58:44Z

@<TRIPOS>MOLECULE
propanol_360.sd
   12    11     0 0 0
SMALL
USER_CHARGES


@<TRIPOS>ATOM
      1 H1            0.000000    0.000000    0.000000 H        1 SUBUNIT    0.2100
      2 C2            2.945200    1.441100   -0.000700 C.3      1 SUBUNIT   -0.0327
      3 C3            1.414900    1.350200    0.000000 C.3      1 SUBUNIT    0.0429
      4 O4            0.950000    0.000000    0.000000 O.3      1 SUBUNIT   -0.3962
      5 C5            3.592200    0.407900    0.928700 C.3      1 SUBUNIT   -0.0632
      6 H6            3.247000    0.563400    1.970000 H        1 SUBUNIT    0.0231
      7 H7            3.316500   -0.616700    0.609700 H        1 SUBUNIT    0.0231
      8 H8            4.695400    0.507100    0.899000 H        1 SUBUNIT    0.0231
      9 H9            3.324700    1.301200   -1.032200 H        1 SUBUNIT    0.0287
     10 H10           3.256400    2.460100    0.303600 H        1 SUBUNIT    0.0287
     11 H11           1.011300    1.881500   -0.884600 H        1 SUBUNIT    0.0563
     12 H12           1.012200    1.881200    0.885100 H        1 SUBUNIT    0.0563
@<TRIPOS>BOND
     1    1    4 1
     2    2    5 1
     3    2    3 1
     4    2    9 1
     5    2   10 1
     6    3    4 1
     7    3   11 1
     8    3   12 1
     9    5    6 1
    10    5    7 1
    11    5    8 1
@<SCITEGIC>ATOM_PROPERTY
Formal Charge
SciTegic.value.StringValue
1 0
2 0
3 0
4 0
5 0
6 0
7 0
8 0
9 0
10 0
11 0
12 0

@<SCITEGIC>ATOM_PROPERTY
pdb_tempFactor
SciTegic.value.DoubleValue
1 0.00
2 0.00
3 0.00
4 0.00
5 0.00
6 0.00
7 0.00
8 0.00
9 0.00
10 0.00
11 0.00
12 0.00

@<SCITEGIC>ATOM_PROPERTY
pdb_occupancy
SciTegic.value.DoubleValue
1 1.00
2 1.00
3 1.00
4 1.00
5 1.00
6 1.00
7 1.00
8 1.00
9 1.00
10 1.00
11 1.00
12 1.00

#	copyright 2023 drugdesign.org
#	Creation time:	2024-01-11T10:58:44Z

@<TRIPOS>MOLECULE
propanol_360.sd
   12    11     0 0 0
SMALL
USER_CHARGES


@<TRIPOS>ATOM
      1 H1            0.000000    0.000000    0.000000 H        1 SUBUNIT    0.2100
      2 C2            2.945200    1.441100   -0.000700 C.3      1 SUBUNIT   -0.0327
      3 C3            1.414900    1.350200    0.000000 C.3      1 SUBUNIT    0.0429
      4 O4            0.950000    0.000000    0.000000 O.3      1 SUBUNIT   -0.3962
      5 C5            3.593200    0.391900    0.909900 C.3      1 SUBUNIT   -0.0632
      6 H6            3.249000    0.529200    1.954100 H        1 SUBUNIT    0.0231
      7 H7            3.317100   -0.627100    0.573300 H        1 SUBUNIT    0.0231
      8 H8            4.696300    0.491500    0.880800 H        1 SUBUNIT    0.0231
      9 H9            3.323600    1.319200   -1.034900 H        1 SUBUNIT    0.0287
     10 H10           3.256800    2.454600    0.321000 H        1 SUBUNIT    0.0287
     11 H11           1.011300    1.881500   -0.884600 H        1 SUBUNIT    0.0563
     12 H12           1.012200    1.881200    0.885100 H        1 SUBUNIT    0.0563
@<TRIPOS>BOND
     1    1    4 1
     2    2    5 1
     3    2    3 1
     4    2    9 1
     5    2   10 1
     6    3    4 1
     7    3   11 1
     8    3   12 1
     9    5    6 1
    10    5    7 1
    11    5    8 1
@<SCITEGIC>ATOM_PROPERTY
Formal Charge
SciTegic.value.StringValue
1 0
2 0
3 0
4 0
5 0
6 0
7 0
8 0
9 0
10 0
11 0
12 0

@<SCITEGIC>ATOM_PROPERTY
pdb_tempFactor
SciTegic.value.DoubleValue
1 0.00
2 0.00
3 0.00
4 0.00
5 0.00
6 0.00
7 0.00
8 0.00
9 0.00
10 0.00
11 0.00
12 0.00

@<SCITEGIC>ATOM_PROPERTY
pdb_occupancy
SciTegic.value.DoubleValue
1 1.00
2 1.00
3 1.00
4 1.00
5 1.00
6 1.00
7 1.00
8 1.00
9 1.00
10 1.00
11 1.00
12 1.00

#	copyright 2023 drugdesign.org
#	Creation time:	2024-01-11T10:58:44Z

@<TRIPOS>MOLECULE
propanol_360.sd
   12    11     0 0 0
SMALL
USER_CHARGES


@<TRIPOS>ATOM
      1 H1            0.000000    0.000000    0.000000 H        1 SUBUNIT    0.2100
      2 C2            2.945200    1.441100   -0.000700 C.3      1 SUBUNIT   -0.0327
      3 C3            1.414900    1.350200    0.000000 C.3      1 SUBUNIT    0.0429
      4 O4            0.950000    0.000000    0.000000 O.3      1 SUBUNIT   -0.3962
      5 C5            3.594100    0.376200    0.890800 C.3      1 SUBUNIT   -0.0632
      6 H6            3.251000    0.495300    1.937600 H        1 SUBUNIT    0.0231
      7 H7            3.317600   -0.636700    0.536800 H        1 SUBUNIT    0.0231
      8 H8            4.697200    0.476300    0.862300 H        1 SUBUNIT    0.0231
      9 H9            3.322500    1.337200   -1.037300 H        1 SUBUNIT    0.0287
     10 H10           3.257100    2.448800    0.338200 H        1 SUBUNIT    0.0287
     11 H11           1.011300    1.881500   -0.884600 H        1 SUBUNIT    0.0563
     12 H12           1.012200    1.881200    0.885100 H        1 SUBUNIT    0.0563
@<TRIPOS>BOND
     1    1    4 1
     2    2    5 1
     3    2    3 1
     4    2    9 1
     5    2   10 1
     6    3    4 1
     7    3   11 1
     8    3   12 1
     9    5    6 1
    10    5    7 1
    11    5    8 1
@<SCITEGIC>ATOM_PROPERTY
Formal Charge
SciTegic.value.StringValue
1 0
2 0
3 0
4 0
5 0
6 0
7 0
8 0
9 0
10 0
11 0
12 0

@<SCITEGIC>ATOM_PROPERTY
pdb_tempFactor
SciTegic.value.DoubleValue
1 0.00
2 0.00
3 0.00
4 0.00
5 0.00
6 0.00
7 0.00
8 0.00
9 0.00
10 0.00
11 0.00
12 0.00

@<SCITEGIC>ATOM_PROPERTY
pdb_occupancy
SciTegic.value.DoubleValue
1 1.00
2 1.00
3 1.00
4 1.00
5 1.00
6 1.00
7 1.00
8 1.00
9 1.00
10 1.00
11 1.00
12 1.00

#	copyright 2023 drugdesign.org
#	Creation time:	2024-01-11T10:58:44Z

@<TRIPOS>MOLECULE
propanol_360.sd
   12    11     0 0 0
SMALL
USER_CHARGES


@<TRIPOS>ATOM
      1 H1            0.000000    0.000000    0.000000 H        1 SUBUNIT    0.2100
      2 C2            2.945200    1.441100   -0.000700 C.3      1 SUBUNIT   -0.0327
      3 C3            1.414900    1.350200    0.000000 C.3      1 SUBUNIT    0.0429
      4 O4            0.950000    0.000000    0.000000 O.3      1 SUBUNIT   -0.3962
      5 C5            3.595000    0.360800    0.871400 C.3      1 SUBUNIT   -0.0632
      6 H6            3.253000    0.461600    1.920500 H        1 SUBUNIT    0.0231
      7 H7            3.318200   -0.645800    0.500200 H        1 SUBUNIT    0.0231
      8 H8            4.698100    0.461400    0.843600 H        1 SUBUNIT    0.0231
      9 H9            3.321400    1.355300   -1.039300 H        1 SUBUNIT    0.0287
     10 H10           3.257500    2.442800    0.355400 H        1 SUBUNIT    0.0287
     11 H11           1.011300    1.881500   -0.884600 H        1 SUBUNIT    0.0563
     12 H12           1.012200    1.881200    0.885100 H        1 SUBUNIT    0.0563
@<TRIPOS>BOND
     1    1    4 1
     2    2    5 1
     3    2    3 1
     4    2    9 1
     5    2   10 1
     6    3    4 1
     7    3   11 1
     8    3   12 1
     9    5    6 1
    10    5    7 1
    11    5    8 1
@<SCITEGIC>ATOM_PROPERTY
Formal Charge
SciTegic.value.StringValue
1 0
2 0
3 0
4 0
5 0
6 0
7 0
8 0
9 0
10 0
11 0
12 0

@<SCITEGIC>ATOM_PROPERTY
pdb_tempFactor
SciTegic.value.DoubleValue
1 0.00
2 0.00
3 0.00
4 0.00
5 0.00
6 0.00
7 0.00
8 0.00
9 0.00
10 0.00
11 0.00
12 0.00

@<SCITEGIC>ATOM_PROPERTY
pdb_occupancy
SciTegic.value.DoubleValue
1 1.00
2 1.00
3 1.00
4 1.00
5 1.00
6 1.00
7 1.00
8 1.00
9 1.00
10 1.00
11 1.00
12 1.00

#	copyright 2023 drugdesign.org
#	Creation time:	2024-01-11T10:58:44Z

@<TRIPOS>MOLECULE
propanol_360.sd
   12    11     0 0 0
SMALL
USER_CHARGES


@<TRIPOS>ATOM
      1 H1            0.000000    0.000000    0.000000 H        1 SUBUNIT    0.2100
      2 C2            2.945200    1.441100   -0.000700 C.3      1 SUBUNIT   -0.0327
      3 C3            1.414900    1.350200    0.000000 C.3      1 SUBUNIT    0.0429
      4 O4            0.950000    0.000000    0.000000 O.3      1 SUBUNIT   -0.3962
      5 C5            3.595900    0.345800    0.851800 C.3      1 SUBUNIT   -0.0632
      6 H6            3.255000    0.428300    1.902800 H        1 SUBUNIT    0.0231
      7 H7            3.318600   -0.654200    0.463300 H        1 SUBUNIT    0.0231
      8 H8            4.698900    0.446900    0.824600 H        1 SUBUNIT    0.0231
      9 H9            3.320400    1.373400   -1.041000 H        1 SUBUNIT    0.0287
     10 H10           3.257900    2.436400    0.372500 H        1 SUBUNIT    0.0287
     11 H11           1.011300    1.881500   -0.884600 H        1 SUBUNIT    0.0563
     12 H12           1.012200    1.881200    0.885100 H        1 SUBUNIT    0.0563
@<TRIPOS>BOND
     1    1    4 1
     2    2    5 1
     3    2    3 1
     4    2    9 1
     5    2   10 1
     6    3    4 1
     7    3   11 1
     8    3   12 1
     9    5    6 1
    10    5    7 1
    11    5    8 1
@<SCITEGIC>ATOM_PROPERTY
Formal Charge
SciTegic.value.StringValue
1 0
2 0
3 0
4 0
5 0
6 0
7 0
8 0
9 0
10 0
11 0
12 0

@<SCITEGIC>ATOM_PROPERTY
pdb_tempFactor
SciTegic.value.DoubleValue
1 0.00
2 0.00
3 0.00
4 0.00
5 0.00
6 0.00
7 0.00
8 0.00
9 0.00
10 0.00
11 0.00
12 0.00

@<SCITEGIC>ATOM_PROPERTY
pdb_occupancy
SciTegic.value.DoubleValue
1 1.00
2 1.00
3 1.00
4 1.00
5 1.00
6 1.00
7 1.00
8 1.00
9 1.00
10 1.00
11 1.00
12 1.00

#	copyright 2023 drugdesign.org
#	Creation time:	2024-01-11T10:58:44Z

@<TRIPOS>MOLECULE
propanol_360.sd
   12    11     0 0 0
SMALL
USER_CHARGES


@<TRIPOS>ATOM
      1 H1            0.000000    0.000000    0.000000 H        1 SUBUNIT    0.2100
      2 C2            2.945200    1.441100   -0.000700 C.3      1 SUBUNIT   -0.0327
      3 C3            1.414900    1.350200    0.000000 C.3      1 SUBUNIT    0.0429
      4 O4            0.950000    0.000000    0.000000 O.3      1 SUBUNIT   -0.3962
      5 C5            3.596800    0.331100    0.831900 C.3      1 SUBUNIT   -0.0632
      6 H6            3.256900    0.395300    1.884600 H        1 SUBUNIT    0.0231
      7 H7            3.319100   -0.662000    0.426400 H        1 SUBUNIT    0.0231
      8 H8            4.699800    0.432600    0.805300 H        1 SUBUNIT    0.0231
      9 H9            3.319300    1.391600   -1.042500 H        1 SUBUNIT    0.0287
     10 H10           3.258300    2.429800    0.389500 H        1 SUBUNIT    0.0287
     11 H11           1.011300    1.881500   -0.884600 H        1 SUBUNIT    0.0563
     12 H12           1.012200    1.881200    0.885100 H        1 SUBUNIT    0.0563
@<TRIPOS>BOND
     1    1    4 1
     2    2    5 1
     3    2    3 1
     4    2    9 1
     5    2   10 1
     6    3    4 1
     7    3   11 1
     8    3   12 1
     9    5    6 1
    10    5    7 1
    11    5    8 1
@<SCITEGIC>ATOM_PROPERTY
Formal Charge
SciTegic.value.StringValue
1 0
2 0
3 0
4 0
5 0
6 0
7 0
8 0
9 0
10 0
11 0
12 0

@<SCITEGIC>ATOM_PROPERTY
pdb_tempFactor
SciTegic.value.DoubleValue
1 0.00
2 0.00
3 0.00
4 0.00
5 0.00
6 0.00
7 0.00
8 0.00
9 0.00
10 0.00
11 0.00
12 0.00

@<SCITEGIC>ATOM_PROPERTY
pdb_occupancy
SciTegic.value.DoubleValue
1 1.00
2 1.00
3 1.00
4 1.00
5 1.00
6 1.00
7 1.00
8 1.00
9 1.00
10 1.00
11 1.00
12 1.00

#	copyright 2023 drugdesign.org
#	Creation time:	2024-01-11T10:58:44Z

@<TRIPOS>MOLECULE
propanol_360.sd
   12    11     0 0 0
SMALL
USER_CHARGES


@<TRIPOS>ATOM
      1 H1            0.000000    0.000000    0.000000 H        1 SUBUNIT    0.2100
      2 C2            2.945200    1.441100   -0.000700 C.3      1 SUBUNIT   -0.0327
      3 C3            1.414900    1.350200    0.000000 C.3      1 SUBUNIT    0.0429
      4 O4            0.950000    0.000000    0.000000 O.3      1 SUBUNIT   -0.3962
      5 C5            3.597600    0.316700    0.811800 C.3      1 SUBUNIT   -0.0632
      6 H6            3.258900    0.362600    1.865700 H        1 SUBUNIT    0.0231
      7 H7            3.319500   -0.669100    0.389300 H        1 SUBUNIT    0.0231
      8 H8            4.700600    0.418800    0.785800 H        1 SUBUNIT    0.0231
      9 H9            3.318200    1.409700   -1.043500 H        1 SUBUNIT    0.0287
     10 H10           3.258700    2.422800    0.406300 H        1 SUBUNIT    0.0287
     11 H11           1.011300    1.881500   -0.884600 H        1 SUBUNIT    0.0563
     12 H12           1.012200    1.881200    0.885100 H        1 SUBUNIT    0.0563
@<TRIPOS>BOND
     1    1    4 1
     2    2    5 1
     3    2    3 1
     4    2    9 1
     5    2   10 1
     6    3    4 1
     7    3   11 1
     8    3   12 1
     9    5    6 1
    10    5    7 1
    11    5    8 1
@<SCITEGIC>ATOM_PROPERTY
Formal Charge
SciTegic.value.StringValue
1 0
2 0
3 0
4 0
5 0
6 0
7 0
8 0
9 0
10 0
11 0
12 0

@<SCITEGIC>ATOM_PROPERTY
pdb_tempFactor
SciTegic.value.DoubleValue
1 0.00
2 0.00
3 0.00
4 0.00
5 0.00
6 0.00
7 0.00
8 0.00
9 0.00
10 0.00
11 0.00
12 0.00

@<SCITEGIC>ATOM_PROPERTY
pdb_occupancy
SciTegic.value.DoubleValue
1 1.00
2 1.00
3 1.00
4 1.00
5 1.00
6 1.00
7 1.00
8 1.00
9 1.00
10 1.00
11 1.00
12 1.00

#	copyright 2023 drugdesign.org
#	Creation time:	2024-01-11T10:58:44Z

@<TRIPOS>MOLECULE
propanol_360.sd
   12    11     0 0 0
SMALL
USER_CHARGES


@<TRIPOS>ATOM
      1 H1            0.000000    0.000000    0.000000 H        1 SUBUNIT    0.2100
      2 C2            2.945200    1.441100   -0.000700 C.3      1 SUBUNIT   -0.0327
      3 C3            1.414900    1.350200    0.000000 C.3      1 SUBUNIT    0.0429
      4 O4            0.950000    0.000000    0.000000 O.3      1 SUBUNIT   -0.3962
      5 C5            3.598400    0.302700    0.791400 C.3      1 SUBUNIT   -0.0632
      6 H6            3.260800    0.330300    1.846300 H        1 SUBUNIT    0.0231
      7 H7            3.319900   -0.675600    0.352100 H        1 SUBUNIT    0.0231
      8 H8            4.701400    0.405200    0.766000 H        1 SUBUNIT    0.0231
      9 H9            3.317100    1.427900   -1.044300 H        1 SUBUNIT    0.0287
     10 H10           3.259100    2.415600    0.423000 H        1 SUBUNIT    0.0287
     11 H11           1.011300    1.881500   -0.884600 H        1 SUBUNIT    0.0563
     12 H12           1.012200    1.881200    0.885100 H        1 SUBUNIT    0.0563
@<TRIPOS>BOND
     1    1    4 1
     2    2    5 1
     3    2    3 1
     4    2    9 1
     5    2   10 1
     6    3    4 1
     7    3   11 1
     8    3   12 1
     9    5    6 1
    10    5    7 1
    11    5    8 1
@<SCITEGIC>ATOM_PROPERTY
Formal Charge
SciTegic.value.StringValue
1 0
2 0
3 0
4 0
5 0
6 0
7 0
8 0
9 0
10 0
11 0
12 0

@<SCITEGIC>ATOM_PROPERTY
pdb_tempFactor
SciTegic.value.DoubleValue
1 0.00
2 0.00
3 0.00
4 0.00
5 0.00
6 0.00
7 0.00
8 0.00
9 0.00
10 0.00
11 0.00
12 0.00

@<SCITEGIC>ATOM_PROPERTY
pdb_occupancy
SciTegic.value.DoubleValue
1 1.00
2 1.00
3 1.00
4 1.00
5 1.00
6 1.00
7 1.00
8 1.00
9 1.00
10 1.00
11 1.00
12 1.00

#	copyright 2023 drugdesign.org
#	Creation time:	2024-01-11T10:58:44Z

@<TRIPOS>MOLECULE
propanol_360.sd
   12    11     0 0 0
SMALL
USER_CHARGES


@<TRIPOS>ATOM
      1 H1            0.000000    0.000000    0.000000 H        1 SUBUNIT    0.2100
      2 C2            2.945200    1.441100   -0.000700 C.3      1 SUBUNIT   -0.0327
      3 C3            1.414900    1.350200    0.000000 C.3      1 SUBUNIT    0.0429
      4 O4            0.950000    0.000000    0.000000 O.3      1 SUBUNIT   -0.3962
      5 C5            3.599200    0.289100    0.770800 C.3      1 SUBUNIT   -0.0632
      6 H6            3.262700    0.298300    1.826400 H        1 SUBUNIT    0.0231
      7 H7            3.320200   -0.681400    0.314800 H        1 SUBUNIT    0.0231
      8 H8            4.702200    0.392000    0.746100 H        1 SUBUNIT    0.0231
      9 H9            3.316100    1.446100   -1.044800 H        1 SUBUNIT    0.0287
     10 H10           3.259600    2.408100    0.439600 H        1 SUBUNIT    0.0287
     11 H11           1.011300    1.881500   -0.884600 H        1 SUBUNIT    0.0563
     12 H12           1.012200    1.881200    0.885100 H        1 SUBUNIT    0.0563
@<TRIPOS>BOND
     1    1    4 1
     2    2    5 1
     3    2    3 1
     4    2    9 1
     5    2   10 1
     6    3    4 1
     7    3   11 1
     8    3   12 1
     9    5    6 1
    10    5    7 1
    11    5    8 1
@<SCITEGIC>ATOM_PROPERTY
Formal Charge
SciTegic.value.StringValue
1 0
2 0
3 0
4 0
5 0
6 0
7 0
8 0
9 0
10 0
11 0
12 0

@<SCITEGIC>ATOM_PROPERTY
pdb_tempFactor
SciTegic.value.DoubleValue
1 0.00
2 0.00
3 0.00
4 0.00
5 0.00
6 0.00
7 0.00
8 0.00
9 0.00
10 0.00
11 0.00
12 0.00

@<SCITEGIC>ATOM_PROPERTY
pdb_occupancy
SciTegic.value.DoubleValue
1 1.00
2 1.00
3 1.00
4 1.00
5 1.00
6 1.00
7 1.00
8 1.00
9 1.00
10 1.00
11 1.00
12 1.00

#	copyright 2023 drugdesign.org
#	Creation time:	2024-01-11T10:58:44Z

@<TRIPOS>MOLECULE
propanol_360.sd
   12    11     0 0 0
SMALL
USER_CHARGES


@<TRIPOS>ATOM
      1 H1            0.000000    0.000000    0.000000 H        1 SUBUNIT    0.2100
      2 C2            2.945200    1.441100   -0.000700 C.3      1 SUBUNIT   -0.0327
      3 C3            1.414900    1.350200    0.000000 C.3      1 SUBUNIT    0.0429
      4 O4            0.950000    0.000000    0.000000 O.3      1 SUBUNIT   -0.3962
      5 C5            3.600000    0.275900    0.749900 C.3      1 SUBUNIT   -0.0632
      6 H6            3.264500    0.266600    1.805900 H        1 SUBUNIT    0.0231
      7 H7            3.320500   -0.686600    0.277300 H        1 SUBUNIT    0.0231
      8 H8            4.702900    0.379200    0.725800 H        1 SUBUNIT    0.0231
      9 H9            3.315000    1.464300   -1.044900 H        1 SUBUNIT    0.0287
     10 H10           3.260000    2.400200    0.456100 H        1 SUBUNIT    0.0287
     11 H11           1.011300    1.881500   -0.884600 H        1 SUBUNIT    0.0563
     12 H12           1.012200    1.881200    0.885100 H        1 SUBUNIT    0.0563
@<TRIPOS>BOND
     1    1    4 1
     2    2    5 1
     3    2    3 1
     4    2    9 1
     5    2   10 1
     6    3    4 1
     7    3   11 1
     8    3   12 1
     9    5    6 1
    10    5    7 1
    11    5    8 1
@<SCITEGIC>ATOM_PROPERTY
Formal Charge
SciTegic.value.StringValue
1 0
2 0
3 0
4 0
5 0
6 0
7 0
8 0
9 0
10 0
11 0
12 0

@<SCITEGIC>ATOM_PROPERTY
pdb_tempFactor
SciTegic.value.DoubleValue
1 0.00
2 0.00
3 0.00
4 0.00
5 0.00
6 0.00
7 0.00
8 0.00
9 0.00
10 0.00
11 0.00
12 0.00

@<SCITEGIC>ATOM_PROPERTY
pdb_occupancy
SciTegic.value.DoubleValue
1 1.00
2 1.00
3 1.00
4 1.00
5 1.00
6 1.00
7 1.00
8 1.00
9 1.00
10 1.00
11 1.00
12 1.00

#	copyright 2023 drugdesign.org
#	Creation time:	2024-01-11T10:58:44Z

@<TRIPOS>MOLECULE
propanol_360.sd
   12    11     0 0 0
SMALL
USER_CHARGES


@<TRIPOS>ATOM
      1 H1            0.000000    0.000000    0.000000 H        1 SUBUNIT    0.2100
      2 C2            2.945200    1.441100   -0.000700 C.3      1 SUBUNIT   -0.0327
      3 C3            1.414900    1.350200    0.000000 C.3      1 SUBUNIT    0.0429
      4 O4            0.950000    0.000000    0.000000 O.3      1 SUBUNIT   -0.3962
      5 C5            3.600800    0.263000    0.728800 C.3      1 SUBUNIT   -0.0632
      6 H6            3.266400    0.235300    1.784800 H        1 SUBUNIT    0.0231
      7 H7            3.320700   -0.691100    0.239800 H        1 SUBUNIT    0.0231
      8 H8            4.703600    0.366700    0.705400 H        1 SUBUNIT    0.0231
      9 H9            3.313900    1.482500   -1.044700 H        1 SUBUNIT    0.0287
     10 H10           3.260500    2.392100    0.472400 H        1 SUBUNIT    0.0287
     11 H11           1.011300    1.881500   -0.884600 H        1 SUBUNIT    0.0563
     12 H12           1.012200    1.881200    0.885100 H        1 SUBUNIT    0.0563
@<TRIPOS>BOND
     1    1    4 1
     2    2    5 1
     3    2    3 1
     4    2    9 1
     5    2   10 1
     6    3    4 1
     7    3   11 1
     8    3   12 1
     9    5    6 1
    10    5    7 1
    11    5    8 1
@<SCITEGIC>ATOM_PROPERTY
Formal Charge
SciTegic.value.StringValue
1 0
2 0
3 0
4 0
5 0
6 0
7 0
8 0
9 0
10 0
11 0
12 0

@<SCITEGIC>ATOM_PROPERTY
pdb_tempFactor
SciTegic.value.DoubleValue
1 0.00
2 0.00
3 0.00
4 0.00
5 0.00
6 0.00
7 0.00
8 0.00
9 0.00
10 0.00
11 0.00
12 0.00

@<SCITEGIC>ATOM_PROPERTY
pdb_occupancy
SciTegic.value.DoubleValue
1 1.00
2 1.00
3 1.00
4 1.00
5 1.00
6 1.00
7 1.00
8 1.00
9 1.00
10 1.00
11 1.00
12 1.00

#	copyright 2023 drugdesign.org
#	Creation time:	2024-01-11T10:58:44Z

@<TRIPOS>MOLECULE
propanol_360.sd
   12    11     0 0 0
SMALL
USER_CHARGES


@<TRIPOS>ATOM
      1 H1            0.000000    0.000000    0.000000 H        1 SUBUNIT    0.2100
      2 C2            2.945200    1.441100   -0.000700 C.3      1 SUBUNIT   -0.0327
      3 C3            1.414900    1.350200    0.000000 C.3      1 SUBUNIT    0.0429
      4 O4            0.950000    0.000000    0.000000 O.3      1 SUBUNIT   -0.3962
      5 C5            3.601500    0.250400    0.707500 C.3      1 SUBUNIT   -0.0632
      6 H6            3.268200    0.204400    1.763200 H        1 SUBUNIT    0.0231
      7 H7            3.320900   -0.694900    0.202300 H        1 SUBUNIT    0.0231
      8 H8            4.704400    0.354500    0.684800 H        1 SUBUNIT    0.0231
      9 H9            3.312800    1.500600   -1.044200 H        1 SUBUNIT    0.0287
     10 H10           3.261000    2.383800    0.488500 H        1 SUBUNIT    0.0287
     11 H11           1.011300    1.881500   -0.884600 H        1 SUBUNIT    0.0563
     12 H12           1.012200    1.881200    0.885100 H        1 SUBUNIT    0.0563
@<TRIPOS>BOND
     1    1    4 1
     2    2    5 1
     3    2    3 1
     4    2    9 1
     5    2   10 1
     6    3    4 1
     7    3   11 1
     8    3   12 1
     9    5    6 1
    10    5    7 1
    11    5    8 1
@<SCITEGIC>ATOM_PROPERTY
Formal Charge
SciTegic.value.StringValue
1 0
2 0
3 0
4 0
5 0
6 0
7 0
8 0
9 0
10 0
11 0
12 0

@<SCITEGIC>ATOM_PROPERTY
pdb_tempFactor
SciTegic.value.DoubleValue
1 0.00
2 0.00
3 0.00
4 0.00
5 0.00
6 0.00
7 0.00
8 0.00
9 0.00
10 0.00
11 0.00
12 0.00

@<SCITEGIC>ATOM_PROPERTY
pdb_occupancy
SciTegic.value.DoubleValue
1 1.00
2 1.00
3 1.00
4 1.00
5 1.00
6 1.00
7 1.00
8 1.00
9 1.00
10 1.00
11 1.00
12 1.00

#	copyright 2023 drugdesign.org
#	Creation time:	2024-01-11T10:58:44Z

@<TRIPOS>MOLECULE
propanol_360.sd
   12    11     0 0 0
SMALL
USER_CHARGES


@<TRIPOS>ATOM
      1 H1            0.000000    0.000000    0.000000 H        1 SUBUNIT    0.2100
      2 C2            2.945200    1.441100   -0.000700 C.3      1 SUBUNIT   -0.0327
      3 C3            1.414900    1.350200    0.000000 C.3      1 SUBUNIT    0.0429
      4 O4            0.950000    0.000000    0.000000 O.3      1 SUBUNIT   -0.3962
      5 C5            3.602200    0.238300    0.686000 C.3      1 SUBUNIT   -0.0632
      6 H6            3.270000    0.173800    1.741000 H        1 SUBUNIT    0.0231
      7 H7            3.321100   -0.698200    0.164600 H        1 SUBUNIT    0.0231
      8 H8            4.705000    0.342800    0.663900 H        1 SUBUNIT    0.0231
      9 H9            3.311700    1.518800   -1.043400 H        1 SUBUNIT    0.0287
     10 H10           3.261600    2.375100    0.504600 H        1 SUBUNIT    0.0287
     11 H11           1.011300    1.881500   -0.884600 H        1 SUBUNIT    0.0563
     12 H12           1.012200    1.881200    0.885100 H        1 SUBUNIT    0.0563
@<TRIPOS>BOND
     1    1    4 1
     2    2    5 1
     3    2    3 1
     4    2    9 1
     5    2   10 1
     6    3    4 1
     7    3   11 1
     8    3   12 1
     9    5    6 1
    10    5    7 1
    11    5    8 1
@<SCITEGIC>ATOM_PROPERTY
Formal Charge
SciTegic.value.StringValue
1 0
2 0
3 0
4 0
5 0
6 0
7 0
8 0
9 0
10 0
11 0
12 0

@<SCITEGIC>ATOM_PROPERTY
pdb_tempFactor
SciTegic.value.DoubleValue
1 0.00
2 0.00
3 0.00
4 0.00
5 0.00
6 0.00
7 0.00
8 0.00
9 0.00
10 0.00
11 0.00
12 0.00

@<SCITEGIC>ATOM_PROPERTY
pdb_occupancy
SciTegic.value.DoubleValue
1 1.00
2 1.00
3 1.00
4 1.00
5 1.00
6 1.00
7 1.00
8 1.00
9 1.00
10 1.00
11 1.00
12 1.00

#	copyright 2023 drugdesign.org
#	Creation time:	2024-01-11T10:58:44Z

@<TRIPOS>MOLECULE
propanol_360.sd
   12    11     0 0 0
SMALL
USER_CHARGES


@<TRIPOS>ATOM
      1 H1            0.000000    0.000000    0.000000 H        1 SUBUNIT    0.2100
      2 C2            2.945200    1.441100   -0.000700 C.3      1 SUBUNIT   -0.0327
      3 C3            1.414900    1.350200    0.000000 C.3      1 SUBUNIT    0.0429
      4 O4            0.950000    0.000000    0.000000 O.3      1 SUBUNIT   -0.3962
      5 C5            3.602900    0.226500    0.664200 C.3      1 SUBUNIT   -0.0632
      6 H6            3.271800    0.143700    1.718400 H        1 SUBUNIT    0.0231
      7 H7            3.321200   -0.700700    0.127000 H        1 SUBUNIT    0.0231
      8 H8            4.705700    0.331400    0.642900 H        1 SUBUNIT    0.0231
      9 H9            3.310700    1.537000   -1.042300 H        1 SUBUNIT    0.0287
     10 H10           3.262100    2.366100    0.520400 H        1 SUBUNIT    0.0287
     11 H11           1.011300    1.881500   -0.884600 H        1 SUBUNIT    0.0563
     12 H12           1.012200    1.881200    0.885100 H        1 SUBUNIT    0.0563
@<TRIPOS>BOND
     1    1    4 1
     2    2    5 1
     3    2    3 1
     4    2    9 1
     5    2   10 1
     6    3    4 1
     7    3   11 1
     8    3   12 1
     9    5    6 1
    10    5    7 1
    11    5    8 1
@<SCITEGIC>ATOM_PROPERTY
Formal Charge
SciTegic.value.StringValue
1 0
2 0
3 0
4 0
5 0
6 0
7 0
8 0
9 0
10 0
11 0
12 0

@<SCITEGIC>ATOM_PROPERTY
pdb_tempFactor
SciTegic.value.DoubleValue
1 0.00
2 0.00
3 0.00
4 0.00
5 0.00
6 0.00
7 0.00
8 0.00
9 0.00
10 0.00
11 0.00
12 0.00

@<SCITEGIC>ATOM_PROPERTY
pdb_occupancy
SciTegic.value.DoubleValue
1 1.00
2 1.00
3 1.00
4 1.00
5 1.00
6 1.00
7 1.00
8 1.00
9 1.00
10 1.00
11 1.00
12 1.00

#	copyright 2023 drugdesign.org
#	Creation time:	2024-01-11T10:58:44Z

@<TRIPOS>MOLECULE
propanol_360.sd
   12    11     0 0 0
SMALL
USER_CHARGES


@<TRIPOS>ATOM
      1 H1            0.000000    0.000000    0.000000 H        1 SUBUNIT    0.2100
      2 C2            2.945200    1.441100   -0.000700 C.3      1 SUBUNIT   -0.0327
      3 C3            1.414900    1.350200    0.000000 C.3      1 SUBUNIT    0.0429
      4 O4            0.950000    0.000000    0.000000 O.3      1 SUBUNIT   -0.3962
      5 C5            3.603600    0.215100    0.642300 C.3      1 SUBUNIT   -0.0632
      6 H6            3.273600    0.113900    1.695200 H        1 SUBUNIT    0.0231
      7 H7            3.321300   -0.702600    0.089200 H        1 SUBUNIT    0.0231
      8 H8            4.706400    0.320300    0.621600 H        1 SUBUNIT    0.0231
      9 H9            3.309600    1.555100   -1.040800 H        1 SUBUNIT    0.0287
     10 H10           3.262700    2.356900    0.536100 H        1 SUBUNIT    0.0287
     11 H11           1.011300    1.881500   -0.884600 H        1 SUBUNIT    0.0563
     12 H12           1.012200    1.881200    0.885100 H        1 SUBUNIT    0.0563
@<TRIPOS>BOND
     1    1    4 1
     2    2    5 1
     3    2    3 1
     4    2    9 1
     5    2   10 1
     6    3    4 1
     7    3   11 1
     8    3   12 1
     9    5    6 1
    10    5    7 1
    11    5    8 1
@<SCITEGIC>ATOM_PROPERTY
Formal Charge
SciTegic.value.StringValue
1 0
2 0
3 0
4 0
5 0
6 0
7 0
8 0
9 0
10 0
11 0
12 0

@<SCITEGIC>ATOM_PROPERTY
pdb_tempFactor
SciTegic.value.DoubleValue
1 0.00
2 0.00
3 0.00
4 0.00
5 0.00
6 0.00
7 0.00
8 0.00
9 0.00
10 0.00
11 0.00
12 0.00

@<SCITEGIC>ATOM_PROPERTY
pdb_occupancy
SciTegic.value.DoubleValue
1 1.00
2 1.00
3 1.00
4 1.00
5 1.00
6 1.00
7 1.00
8 1.00
9 1.00
10 1.00
11 1.00
12 1.00

#	copyright 2023 drugdesign.org
#	Creation time:	2024-01-11T10:58:44Z

@<TRIPOS>MOLECULE
propanol_360.sd
   12    11     0 0 0
SMALL
USER_CHARGES


@<TRIPOS>ATOM
      1 H1            0.000000    0.000000    0.000000 H        1 SUBUNIT    0.2100
      2 C2            2.945200    1.441100   -0.000700 C.3      1 SUBUNIT   -0.0327
      3 C3            1.414900    1.350200    0.000000 C.3      1 SUBUNIT    0.0429
      4 O4            0.950000    0.000000    0.000000 O.3      1 SUBUNIT   -0.3962
      5 C5            3.604200    0.204100    0.620100 C.3      1 SUBUNIT   -0.0632
      6 H6            3.275300    0.084600    1.671400 H        1 SUBUNIT    0.0231
      7 H7            3.321400   -0.703800    0.051500 H        1 SUBUNIT    0.0231
      8 H8            4.707000    0.309600    0.600200 H        1 SUBUNIT    0.0231
      9 H9            3.308500    1.573200   -1.039100 H        1 SUBUNIT    0.0287
     10 H10           3.263200    2.347400    0.551700 H        1 SUBUNIT    0.0287
     11 H11           1.011300    1.881500   -0.884600 H        1 SUBUNIT    0.0563
     12 H12           1.012200    1.881200    0.885100 H        1 SUBUNIT    0.0563
@<TRIPOS>BOND
     1    1    4 1
     2    2    5 1
     3    2    3 1
     4    2    9 1
     5    2   10 1
     6    3    4 1
     7    3   11 1
     8    3   12 1
     9    5    6 1
    10    5    7 1
    11    5    8 1
@<SCITEGIC>ATOM_PROPERTY
Formal Charge
SciTegic.value.StringValue
1 0
2 0
3 0
4 0
5 0
6 0
7 0
8 0
9 0
10 0
11 0
12 0

@<SCITEGIC>ATOM_PROPERTY
pdb_tempFactor
SciTegic.value.DoubleValue
1 0.00
2 0.00
3 0.00
4 0.00
5 0.00
6 0.00
7 0.00
8 0.00
9 0.00
10 0.00
11 0.00
12 0.00

@<SCITEGIC>ATOM_PROPERTY
pdb_occupancy
SciTegic.value.DoubleValue
1 1.00
2 1.00
3 1.00
4 1.00
5 1.00
6 1.00
7 1.00
8 1.00
9 1.00
10 1.00
11 1.00
12 1.00

#	copyright 2023 drugdesign.org
#	Creation time:	2024-01-11T10:58:44Z

@<TRIPOS>MOLECULE
propanol_360.sd
   12    11     0 0 0
SMALL
USER_CHARGES


@<TRIPOS>ATOM
      1 H1            0.000000    0.000000    0.000000 H        1 SUBUNIT    0.2100
      2 C2            2.945200    1.441100   -0.000700 C.3      1 SUBUNIT   -0.0327
      3 C3            1.414900    1.350200    0.000000 C.3      1 SUBUNIT    0.0429
      4 O4            0.950000    0.000000    0.000000 O.3      1 SUBUNIT   -0.3962
      5 C5            3.604800    0.193500    0.597800 C.3      1 SUBUNIT   -0.0632
      6 H6            3.277000    0.055700    1.647200 H        1 SUBUNIT    0.0231
      7 H7            3.321400   -0.704400    0.013700 H        1 SUBUNIT    0.0231
      8 H8            4.707600    0.299300    0.578500 H        1 SUBUNIT    0.0231
      9 H9            3.307400    1.591300   -1.037000 H        1 SUBUNIT    0.0287
     10 H10           3.263800    2.337700    0.567100 H        1 SUBUNIT    0.0287
     11 H11           1.011300    1.881500   -0.884600 H        1 SUBUNIT    0.0563
     12 H12           1.012200    1.881200    0.885100 H        1 SUBUNIT    0.0563
@<TRIPOS>BOND
     1    1    4 1
     2    2    5 1
     3    2    3 1
     4    2    9 1
     5    2   10 1
     6    3    4 1
     7    3   11 1
     8    3   12 1
     9    5    6 1
    10    5    7 1
    11    5    8 1
@<SCITEGIC>ATOM_PROPERTY
Formal Charge
SciTegic.value.StringValue
1 0
2 0
3 0
4 0
5 0
6 0
7 0
8 0
9 0
10 0
11 0
12 0

@<SCITEGIC>ATOM_PROPERTY
pdb_tempFactor
SciTegic.value.DoubleValue
1 0.00
2 0.00
3 0.00
4 0.00
5 0.00
6 0.00
7 0.00
8 0.00
9 0.00
10 0.00
11 0.00
12 0.00

@<SCITEGIC>ATOM_PROPERTY
pdb_occupancy
SciTegic.value.DoubleValue
1 1.00
2 1.00
3 1.00
4 1.00
5 1.00
6 1.00
7 1.00
8 1.00
9 1.00
10 1.00
11 1.00
12 1.00

#	copyright 2023 drugdesign.org
#	Creation time:	2024-01-11T10:58:44Z

@<TRIPOS>MOLECULE
propanol_360.sd
   12    11     0 0 0
SMALL
USER_CHARGES


@<TRIPOS>ATOM
      1 H1            0.000000    0.000000    0.000000 H        1 SUBUNIT    0.2100
      2 C2            2.945200    1.441100   -0.000700 C.3      1 SUBUNIT   -0.0327
      3 C3            1.414900    1.350200    0.000000 C.3      1 SUBUNIT    0.0429
      4 O4            0.950000    0.000000    0.000000 O.3      1 SUBUNIT   -0.3962
      5 C5            3.605400    0.183200    0.575300 C.3      1 SUBUNIT   -0.0632
      6 H6            3.278700    0.027200    1.622500 H        1 SUBUNIT    0.0231
      7 H7            3.321400   -0.704400   -0.024100 H        1 SUBUNIT    0.0231
      8 H8            4.708200    0.289400    0.556700 H        1 SUBUNIT    0.0231
      9 H9            3.306400    1.609300   -1.034600 H        1 SUBUNIT    0.0287
     10 H10           3.264400    2.327700    0.582300 H        1 SUBUNIT    0.0287
     11 H11           1.011300    1.881500   -0.884600 H        1 SUBUNIT    0.0563
     12 H12           1.012200    1.881200    0.885100 H        1 SUBUNIT    0.0563
@<TRIPOS>BOND
     1    1    4 1
     2    2    5 1
     3    2    3 1
     4    2    9 1
     5    2   10 1
     6    3    4 1
     7    3   11 1
     8    3   12 1
     9    5    6 1
    10    5    7 1
    11    5    8 1
@<SCITEGIC>ATOM_PROPERTY
Formal Charge
SciTegic.value.StringValue
1 0
2 0
3 0
4 0
5 0
6 0
7 0
8 0
9 0
10 0
11 0
12 0

@<SCITEGIC>ATOM_PROPERTY
pdb_tempFactor
SciTegic.value.DoubleValue
1 0.00
2 0.00
3 0.00
4 0.00
5 0.00
6 0.00
7 0.00
8 0.00
9 0.00
10 0.00
11 0.00
12 0.00

@<SCITEGIC>ATOM_PROPERTY
pdb_occupancy
SciTegic.value.DoubleValue
1 1.00
2 1.00
3 1.00
4 1.00
5 1.00
6 1.00
7 1.00
8 1.00
9 1.00
10 1.00
11 1.00
12 1.00

#	copyright 2023 drugdesign.org
#	Creation time:	2024-01-11T10:58:44Z

@<TRIPOS>MOLECULE
propanol_360.sd
   12    11     0 0 0
SMALL
USER_CHARGES


@<TRIPOS>ATOM
      1 H1            0.000000    0.000000    0.000000 H        1 SUBUNIT    0.2100
      2 C2            2.945200    1.441100   -0.000700 C.3      1 SUBUNIT   -0.0327
      3 C3            1.414900    1.350200    0.000000 C.3      1 SUBUNIT    0.0429
      4 O4            0.950000    0.000000    0.000000 O.3      1 SUBUNIT   -0.3962
      5 C5            3.606000    0.173400    0.552600 C.3      1 SUBUNIT   -0.0632
      6 H6            3.280300   -0.000900    1.597300 H        1 SUBUNIT    0.0231
      7 H7            3.321300   -0.703600   -0.061800 H        1 SUBUNIT    0.0231
      8 H8            4.708700    0.279900    0.534700 H        1 SUBUNIT    0.0231
      9 H9            3.305300    1.627300   -1.031900 H        1 SUBUNIT    0.0287
     10 H10           3.265000    2.317400    0.597300 H        1 SUBUNIT    0.0287
     11 H11           1.011300    1.881500   -0.884600 H        1 SUBUNIT    0.0563
     12 H12           1.012200    1.881200    0.885100 H        1 SUBUNIT    0.0563
@<TRIPOS>BOND
     1    1    4 1
     2    2    5 1
     3    2    3 1
     4    2    9 1
     5    2   10 1
     6    3    4 1
     7    3   11 1
     8    3   12 1
     9    5    6 1
    10    5    7 1
    11    5    8 1
@<SCITEGIC>ATOM_PROPERTY
Formal Charge
SciTegic.value.StringValue
1 0
2 0
3 0
4 0
5 0
6 0
7 0
8 0
9 0
10 0
11 0
12 0

@<SCITEGIC>ATOM_PROPERTY
pdb_tempFactor
SciTegic.value.DoubleValue
1 0.00
2 0.00
3 0.00
4 0.00
5 0.00
6 0.00
7 0.00
8 0.00
9 0.00
10 0.00
11 0.00
12 0.00

@<SCITEGIC>ATOM_PROPERTY
pdb_occupancy
SciTegic.value.DoubleValue
1 1.00
2 1.00
3 1.00
4 1.00
5 1.00
6 1.00
7 1.00
8 1.00
9 1.00
10 1.00
11 1.00
12 1.00

#	copyright 2023 drugdesign.org
#	Creation time:	2024-01-11T10:58:44Z

@<TRIPOS>MOLECULE
propanol_360.sd
   12    11     0 0 0
SMALL
USER_CHARGES


@<TRIPOS>ATOM
      1 H1            0.000000    0.000000    0.000000 H        1 SUBUNIT    0.2100
      2 C2            2.945200    1.441100   -0.000700 C.3      1 SUBUNIT   -0.0327
      3 C3            1.414900    1.350200    0.000000 C.3      1 SUBUNIT    0.0429
      4 O4            0.950000    0.000000    0.000000 O.3      1 SUBUNIT   -0.3962
      5 C5            3.606500    0.163900    0.529800 C.3      1 SUBUNIT   -0.0632
      6 H6            3.282000   -0.028500    1.571500 H        1 SUBUNIT    0.0231
      7 H7            3.321200   -0.702200   -0.099600 H        1 SUBUNIT    0.0231
      8 H8            4.709300    0.270700    0.512600 H        1 SUBUNIT    0.0231
      9 H9            3.304200    1.645200   -1.028900 H        1 SUBUNIT    0.0287
     10 H10           3.265700    2.306800    0.612100 H        1 SUBUNIT    0.0287
     11 H11           1.011300    1.881500   -0.884600 H        1 SUBUNIT    0.0563
     12 H12           1.012200    1.881200    0.885100 H        1 SUBUNIT    0.0563
@<TRIPOS>BOND
     1    1    4 1
     2    2    5 1
     3    2    3 1
     4    2    9 1
     5    2   10 1
     6    3    4 1
     7    3   11 1
     8    3   12 1
     9    5    6 1
    10    5    7 1
    11    5    8 1
@<SCITEGIC>ATOM_PROPERTY
Formal Charge
SciTegic.value.StringValue
1 0
2 0
3 0
4 0
5 0
6 0
7 0
8 0
9 0
10 0
11 0
12 0

@<SCITEGIC>ATOM_PROPERTY
pdb_tempFactor
SciTegic.value.DoubleValue
1 0.00
2 0.00
3 0.00
4 0.00
5 0.00
6 0.00
7 0.00
8 0.00
9 0.00
10 0.00
11 0.00
12 0.00

@<SCITEGIC>ATOM_PROPERTY
pdb_occupancy
SciTegic.value.DoubleValue
1 1.00
2 1.00
3 1.00
4 1.00
5 1.00
6 1.00
7 1.00
8 1.00
9 1.00
10 1.00
11 1.00
12 1.00

#	copyright 2023 drugdesign.org
#	Creation time:	2024-01-11T10:58:44Z

@<TRIPOS>MOLECULE
propanol_360.sd
   12    11     0 0 0
SMALL
USER_CHARGES


@<TRIPOS>ATOM
      1 H1            0.000000    0.000000    0.000000 H        1 SUBUNIT    0.2100
      2 C2            2.945200    1.441100   -0.000700 C.3      1 SUBUNIT   -0.0327
      3 C3            1.414900    1.350200    0.000000 C.3      1 SUBUNIT    0.0429
      4 O4            0.950000    0.000000    0.000000 O.3      1 SUBUNIT   -0.3962
      5 C5            3.607100    0.154900    0.506700 C.3      1 SUBUNIT   -0.0632
      6 H6            3.283600   -0.055700    1.545400 H        1 SUBUNIT    0.0231
      7 H7            3.321100   -0.700200   -0.137300 H        1 SUBUNIT    0.0231
      8 H8            4.709800    0.262000    0.490300 H        1 SUBUNIT    0.0231
      9 H9            3.303200    1.663100   -1.025500 H        1 SUBUNIT    0.0287
     10 H10           3.266300    2.296000    0.626800 H        1 SUBUNIT    0.0287
     11 H11           1.011300    1.881500   -0.884600 H        1 SUBUNIT    0.0563
     12 H12           1.012200    1.881200    0.885100 H        1 SUBUNIT    0.0563
@<TRIPOS>BOND
     1    1    4 1
     2    2    5 1
     3    2    3 1
     4    2    9 1
     5    2   10 1
     6    3    4 1
     7    3   11 1
     8    3   12 1
     9    5    6 1
    10    5    7 1
    11    5    8 1
@<SCITEGIC>ATOM_PROPERTY
Formal Charge
SciTegic.value.StringValue
1 0
2 0
3 0
4 0
5 0
6 0
7 0
8 0
9 0
10 0
11 0
12 0

@<SCITEGIC>ATOM_PROPERTY
pdb_tempFactor
SciTegic.value.DoubleValue
1 0.00
2 0.00
3 0.00
4 0.00
5 0.00
6 0.00
7 0.00
8 0.00
9 0.00
10 0.00
11 0.00
12 0.00

@<SCITEGIC>ATOM_PROPERTY
pdb_occupancy
SciTegic.value.DoubleValue
1 1.00
2 1.00
3 1.00
4 1.00
5 1.00
6 1.00
7 1.00
8 1.00
9 1.00
10 1.00
11 1.00
12 1.00

#	copyright 2023 drugdesign.org
#	Creation time:	2024-01-11T10:58:44Z

@<TRIPOS>MOLECULE
propanol_360.sd
   12    11     0 0 0
SMALL
USER_CHARGES


@<TRIPOS>ATOM
      1 H1            0.000000    0.000000    0.000000 H        1 SUBUNIT    0.2100
      2 C2            2.945200    1.441100   -0.000700 C.3      1 SUBUNIT   -0.0327
      3 C3            1.414900    1.350200    0.000000 C.3      1 SUBUNIT    0.0429
      4 O4            0.950000    0.000000    0.000000 O.3      1 SUBUNIT   -0.3962
      5 C5            3.607600    0.146200    0.483600 C.3      1 SUBUNIT   -0.0632
      6 H6            3.285100   -0.082400    1.518700 H        1 SUBUNIT    0.0231
      7 H7            3.320900   -0.697500   -0.175000 H        1 SUBUNIT    0.0231
      8 H8            4.710300    0.253600    0.467900 H        1 SUBUNIT    0.0231
      9 H9            3.302100    1.680900   -1.021900 H        1 SUBUNIT    0.0287
     10 H10           3.267000    2.284900    0.641200 H        1 SUBUNIT    0.0287
     11 H11           1.011300    1.881500   -0.884600 H        1 SUBUNIT    0.0563
     12 H12           1.012200    1.881200    0.885100 H        1 SUBUNIT    0.0563
@<TRIPOS>BOND
     1    1    4 1
     2    2    5 1
     3    2    3 1
     4    2    9 1
     5    2   10 1
     6    3    4 1
     7    3   11 1
     8    3   12 1
     9    5    6 1
    10    5    7 1
    11    5    8 1
@<SCITEGIC>ATOM_PROPERTY
Formal Charge
SciTegic.value.StringValue
1 0
2 0
3 0
4 0
5 0
6 0
7 0
8 0
9 0
10 0
11 0
12 0

@<SCITEGIC>ATOM_PROPERTY
pdb_tempFactor
SciTegic.value.DoubleValue
1 0.00
2 0.00
3 0.00
4 0.00
5 0.00
6 0.00
7 0.00
8 0.00
9 0.00
10 0.00
11 0.00
12 0.00

@<SCITEGIC>ATOM_PROPERTY
pdb_occupancy
SciTegic.value.DoubleValue
1 1.00
2 1.00
3 1.00
4 1.00
5 1.00
6 1.00
7 1.00
8 1.00
9 1.00
10 1.00
11 1.00
12 1.00

#	copyright 2023 drugdesign.org
#	Creation time:	2024-01-11T10:58:44Z

@<TRIPOS>MOLECULE
propanol_360.sd
   12    11     0 0 0
SMALL
USER_CHARGES


@<TRIPOS>ATOM
      1 H1            0.000000    0.000000    0.000000 H        1 SUBUNIT    0.2100
      2 C2            2.945200    1.441100   -0.000700 C.3      1 SUBUNIT   -0.0327
      3 C3            1.414900    1.350200    0.000000 C.3      1 SUBUNIT    0.0429
      4 O4            0.950000    0.000000    0.000000 O.3      1 SUBUNIT   -0.3962
      5 C5            3.608100    0.138000    0.460300 C.3      1 SUBUNIT   -0.0632
      6 H6            3.286700   -0.108600    1.491600 H        1 SUBUNIT    0.0231
      7 H7            3.320700   -0.694100   -0.212600 H        1 SUBUNIT    0.0231
      8 H8            4.710700    0.245600    0.445300 H        1 SUBUNIT    0.0231
      9 H9            3.301100    1.698700   -1.017900 H        1 SUBUNIT    0.0287
     10 H10           3.267700    2.273600    0.655500 H        1 SUBUNIT    0.0287
     11 H11           1.011300    1.881500   -0.884600 H        1 SUBUNIT    0.0563
     12 H12           1.012200    1.881200    0.885100 H        1 SUBUNIT    0.0563
@<TRIPOS>BOND
     1    1    4 1
     2    2    5 1
     3    2    3 1
     4    2    9 1
     5    2   10 1
     6    3    4 1
     7    3   11 1
     8    3   12 1
     9    5    6 1
    10    5    7 1
    11    5    8 1
@<SCITEGIC>ATOM_PROPERTY
Formal Charge
SciTegic.value.StringValue
1 0
2 0
3 0
4 0
5 0
6 0
7 0
8 0
9 0
10 0
11 0
12 0

@<SCITEGIC>ATOM_PROPERTY
pdb_tempFactor
SciTegic.value.DoubleValue
1 0.00
2 0.00
3 0.00
4 0.00
5 0.00
6 0.00
7 0.00
8 0.00
9 0.00
10 0.00
11 0.00
12 0.00

@<SCITEGIC>ATOM_PROPERTY
pdb_occupancy
SciTegic.value.DoubleValue
1 1.00
2 1.00
3 1.00
4 1.00
5 1.00
6 1.00
7 1.00
8 1.00
9 1.00
10 1.00
11 1.00
12 1.00

#	copyright 2023 drugdesign.org
#	Creation time:	2024-01-11T10:58:44Z

@<TRIPOS>MOLECULE
propanol_360.sd
   12    11     0 0 0
SMALL
USER_CHARGES


@<TRIPOS>ATOM
      1 H1            0.000000    0.000000    0.000000 H        1 SUBUNIT    0.2100
      2 C2            2.945200    1.441100   -0.000700 C.3      1 SUBUNIT   -0.0327
      3 C3            1.414900    1.350200    0.000000 C.3      1 SUBUNIT    0.0429
      4 O4            0.950000    0.000000    0.000000 O.3      1 SUBUNIT   -0.3962
      5 C5            3.608500    0.130200    0.436800 C.3      1 SUBUNIT   -0.0632
      6 H6            3.288200   -0.134400    1.464000 H        1 SUBUNIT    0.0231
      7 H7            3.320400   -0.690100   -0.250100 H        1 SUBUNIT    0.0231
      8 H8            4.711200    0.238000    0.422600 H        1 SUBUNIT    0.0231
      9 H9            3.300000    1.716400   -1.013600 H        1 SUBUNIT    0.0287
     10 H10           3.268300    2.262100    0.669600 H        1 SUBUNIT    0.0287
     11 H11           1.011300    1.881500   -0.884600 H        1 SUBUNIT    0.0563
     12 H12           1.012200    1.881200    0.885100 H        1 SUBUNIT    0.0563
@<TRIPOS>BOND
     1    1    4 1
     2    2    5 1
     3    2    3 1
     4    2    9 1
     5    2   10 1
     6    3    4 1
     7    3   11 1
     8    3   12 1
     9    5    6 1
    10    5    7 1
    11    5    8 1
@<SCITEGIC>ATOM_PROPERTY
Formal Charge
SciTegic.value.StringValue
1 0
2 0
3 0
4 0
5 0
6 0
7 0
8 0
9 0
10 0
11 0
12 0

@<SCITEGIC>ATOM_PROPERTY
pdb_tempFactor
SciTegic.value.DoubleValue
1 0.00
2 0.00
3 0.00
4 0.00
5 0.00
6 0.00
7 0.00
8 0.00
9 0.00
10 0.00
11 0.00
12 0.00

@<SCITEGIC>ATOM_PROPERTY
pdb_occupancy
SciTegic.value.DoubleValue
1 1.00
2 1.00
3 1.00
4 1.00
5 1.00
6 1.00
7 1.00
8 1.00
9 1.00
10 1.00
11 1.00
12 1.00

#	copyright 2023 drugdesign.org
#	Creation time:	2024-01-11T10:58:44Z

@<TRIPOS>MOLECULE
propanol_360.sd
   12    11     0 0 0
SMALL
USER_CHARGES


@<TRIPOS>ATOM
      1 H1            0.000000    0.000000    0.000000 H        1 SUBUNIT    0.2100
      2 C2            2.945200    1.441100   -0.000700 C.3      1 SUBUNIT   -0.0327
      3 C3            1.414900    1.350200    0.000000 C.3      1 SUBUNIT    0.0429
      4 O4            0.950000    0.000000    0.000000 O.3      1 SUBUNIT   -0.3962
      5 C5            3.608900    0.122700    0.413200 C.3      1 SUBUNIT   -0.0632
      6 H6            3.289700   -0.159700    1.436000 H        1 SUBUNIT    0.0231
      7 H7            3.320200   -0.685400   -0.287600 H        1 SUBUNIT    0.0231
      8 H8            4.711600    0.230900    0.399700 H        1 SUBUNIT    0.0231
      9 H9            3.299000    1.734000   -1.009000 H        1 SUBUNIT    0.0287
     10 H10           3.269100    2.250300    0.683500 H        1 SUBUNIT    0.0287
     11 H11           1.011300    1.881500   -0.884600 H        1 SUBUNIT    0.0563
     12 H12           1.012200    1.881200    0.885100 H        1 SUBUNIT    0.0563
@<TRIPOS>BOND
     1    1    4 1
     2    2    5 1
     3    2    3 1
     4    2    9 1
     5    2   10 1
     6    3    4 1
     7    3   11 1
     8    3   12 1
     9    5    6 1
    10    5    7 1
    11    5    8 1
@<SCITEGIC>ATOM_PROPERTY
Formal Charge
SciTegic.value.StringValue
1 0
2 0
3 0
4 0
5 0
6 0
7 0
8 0
9 0
10 0
11 0
12 0

@<SCITEGIC>ATOM_PROPERTY
pdb_tempFactor
SciTegic.value.DoubleValue
1 0.00
2 0.00
3 0.00
4 0.00
5 0.00
6 0.00
7 0.00
8 0.00
9 0.00
10 0.00
11 0.00
12 0.00

@<SCITEGIC>ATOM_PROPERTY
pdb_occupancy
SciTegic.value.DoubleValue
1 1.00
2 1.00
3 1.00
4 1.00
5 1.00
6 1.00
7 1.00
8 1.00
9 1.00
10 1.00
11 1.00
12 1.00

#	copyright 2023 drugdesign.org
#	Creation time:	2024-01-11T10:58:44Z

@<TRIPOS>MOLECULE
propanol_360.sd
   12    11     0 0 0
SMALL
USER_CHARGES


@<TRIPOS>ATOM
      1 H1            0.000000    0.000000    0.000000 H        1 SUBUNIT    0.2100
      2 C2            2.945200    1.441100   -0.000700 C.3      1 SUBUNIT   -0.0327
      3 C3            1.414900    1.350200    0.000000 C.3      1 SUBUNIT    0.0429
      4 O4            0.950000    0.000000    0.000000 O.3      1 SUBUNIT   -0.3962
      5 C5            3.609300    0.115700    0.389500 C.3      1 SUBUNIT   -0.0632
      6 H6            3.291200   -0.184400    1.407500 H        1 SUBUNIT    0.0231
      7 H7            3.319800   -0.680100   -0.325000 H        1 SUBUNIT    0.0231
      8 H8            4.712000    0.224100    0.376700 H        1 SUBUNIT    0.0231
      9 H9            3.297900    1.751500   -1.004100 H        1 SUBUNIT    0.0287
     10 H10           3.269800    2.238200    0.697100 H        1 SUBUNIT    0.0287
     11 H11           1.011300    1.881500   -0.884600 H        1 SUBUNIT    0.0563
     12 H12           1.012200    1.881200    0.885100 H        1 SUBUNIT    0.0563
@<TRIPOS>BOND
     1    1    4 1
     2    2    5 1
     3    2    3 1
     4    2    9 1
     5    2   10 1
     6    3    4 1
     7    3   11 1
     8    3   12 1
     9    5    6 1
    10    5    7 1
    11    5    8 1
@<SCITEGIC>ATOM_PROPERTY
Formal Charge
SciTegic.value.StringValue
1 0
2 0
3 0
4 0
5 0
6 0
7 0
8 0
9 0
10 0
11 0
12 0

@<SCITEGIC>ATOM_PROPERTY
pdb_tempFactor
SciTegic.value.DoubleValue
1 0.00
2 0.00
3 0.00
4 0.00
5 0.00
6 0.00
7 0.00
8 0.00
9 0.00
10 0.00
11 0.00
12 0.00

@<SCITEGIC>ATOM_PROPERTY
pdb_occupancy
SciTegic.value.DoubleValue
1 1.00
2 1.00
3 1.00
4 1.00
5 1.00
6 1.00
7 1.00
8 1.00
9 1.00
10 1.00
11 1.00
12 1.00

#	copyright 2023 drugdesign.org
#	Creation time:	2024-01-11T10:58:44Z

@<TRIPOS>MOLECULE
propanol_360.sd
   12    11     0 0 0
SMALL
USER_CHARGES


@<TRIPOS>ATOM
      1 H1            0.000000    0.000000    0.000000 H        1 SUBUNIT    0.2100
      2 C2            2.945200    1.441100   -0.000700 C.3      1 SUBUNIT   -0.0327
      3 C3            1.414900    1.350200    0.000000 C.3      1 SUBUNIT    0.0429
      4 O4            0.950000    0.000000    0.000000 O.3      1 SUBUNIT   -0.3962
      5 C5            3.609700    0.109100    0.365700 C.3      1 SUBUNIT   -0.0632
      6 H6            3.292600   -0.208700    1.378600 H        1 SUBUNIT    0.0231
      7 H7            3.319400   -0.674100   -0.362300 H        1 SUBUNIT    0.0231
      8 H8            4.712300    0.217700    0.353700 H        1 SUBUNIT    0.0231
      9 H9            3.296900    1.768900   -0.999000 H        1 SUBUNIT    0.0287
     10 H10           3.270500    2.226000    0.710600 H        1 SUBUNIT    0.0287
     11 H11           1.011300    1.881500   -0.884600 H        1 SUBUNIT    0.0563
     12 H12           1.012200    1.881200    0.885100 H        1 SUBUNIT    0.0563
@<TRIPOS>BOND
     1    1    4 1
     2    2    5 1
     3    2    3 1
     4    2    9 1
     5    2   10 1
     6    3    4 1
     7    3   11 1
     8    3   12 1
     9    5    6 1
    10    5    7 1
    11    5    8 1
@<SCITEGIC>ATOM_PROPERTY
Formal Charge
SciTegic.value.StringValue
1 0
2 0
3 0
4 0
5 0
6 0
7 0
8 0
9 0
10 0
11 0
12 0

@<SCITEGIC>ATOM_PROPERTY
pdb_tempFactor
SciTegic.value.DoubleValue
1 0.00
2 0.00
3 0.00
4 0.00
5 0.00
6 0.00
7 0.00
8 0.00
9 0.00
10 0.00
11 0.00
12 0.00

@<SCITEGIC>ATOM_PROPERTY
pdb_occupancy
SciTegic.value.DoubleValue
1 1.00
2 1.00
3 1.00
4 1.00
5 1.00
6 1.00
7 1.00
8 1.00
9 1.00
10 1.00
11 1.00
12 1.00

#	copyright 2023 drugdesign.org
#	Creation time:	2024-01-11T10:58:44Z

@<TRIPOS>MOLECULE
propanol_360.sd
   12    11     0 0 0
SMALL
USER_CHARGES


@<TRIPOS>ATOM
      1 H1            0.000000    0.000000    0.000000 H        1 SUBUNIT    0.2100
      2 C2            2.945200    1.441100   -0.000700 C.3      1 SUBUNIT   -0.0327
      3 C3            1.414900    1.350200    0.000000 C.3      1 SUBUNIT    0.0429
      4 O4            0.950000    0.000000    0.000000 O.3      1 SUBUNIT   -0.3962
      5 C5            3.610100    0.103000    0.341700 C.3      1 SUBUNIT   -0.0632
      6 H6            3.294000   -0.232500    1.349300 H        1 SUBUNIT    0.0231
      7 H7            3.319000   -0.667500   -0.399500 H        1 SUBUNIT    0.0231
      8 H8            4.712700    0.211700    0.330500 H        1 SUBUNIT    0.0231
      9 H9            3.295900    1.786300   -0.993500 H        1 SUBUNIT    0.0287
     10 H10           3.271300    2.213400    0.723800 H        1 SUBUNIT    0.0287
     11 H11           1.011300    1.881500   -0.884600 H        1 SUBUNIT    0.0563
     12 H12           1.012200    1.881200    0.885100 H        1 SUBUNIT    0.0563
@<TRIPOS>BOND
     1    1    4 1
     2    2    5 1
     3    2    3 1
     4    2    9 1
     5    2   10 1
     6    3    4 1
     7    3   11 1
     8    3   12 1
     9    5    6 1
    10    5    7 1
    11    5    8 1
@<SCITEGIC>ATOM_PROPERTY
Formal Charge
SciTegic.value.StringValue
1 0
2 0
3 0
4 0
5 0
6 0
7 0
8 0
9 0
10 0
11 0
12 0

@<SCITEGIC>ATOM_PROPERTY
pdb_tempFactor
SciTegic.value.DoubleValue
1 0.00
2 0.00
3 0.00
4 0.00
5 0.00
6 0.00
7 0.00
8 0.00
9 0.00
10 0.00
11 0.00
12 0.00

@<SCITEGIC>ATOM_PROPERTY
pdb_occupancy
SciTegic.value.DoubleValue
1 1.00
2 1.00
3 1.00
4 1.00
5 1.00
6 1.00
7 1.00
8 1.00
9 1.00
10 1.00
11 1.00
12 1.00

#	copyright 2023 drugdesign.org
#	Creation time:	2024-01-11T10:58:44Z

@<TRIPOS>MOLECULE
propanol_360.sd
   12    11     0 0 0
SMALL
USER_CHARGES


@<TRIPOS>ATOM
      1 H1            0.000000    0.000000    0.000000 H        1 SUBUNIT    0.2100
      2 C2            2.945200    1.441100   -0.000700 C.3      1 SUBUNIT   -0.0327
      3 C3            1.414900    1.350200    0.000000 C.3      1 SUBUNIT    0.0429
      4 O4            0.950000    0.000000    0.000000 O.3      1 SUBUNIT   -0.3962
      5 C5            3.610400    0.097200    0.317600 C.3      1 SUBUNIT   -0.0632
      6 H6            3.295400   -0.255800    1.319600 H        1 SUBUNIT    0.0231
      7 H7            3.318600   -0.660200   -0.436500 H        1 SUBUNIT    0.0231
      8 H8            4.713000    0.206100    0.307200 H        1 SUBUNIT    0.0231
      9 H9            3.294800    1.803500   -0.987700 H        1 SUBUNIT    0.0287
     10 H10           3.272000    2.200700    0.736800 H        1 SUBUNIT    0.0287
     11 H11           1.011300    1.881500   -0.884600 H        1 SUBUNIT    0.0563
     12 H12           1.012200    1.881200    0.885100 H        1 SUBUNIT    0.0563
@<TRIPOS>BOND
     1    1    4 1
     2    2    5 1
     3    2    3 1
     4    2    9 1
     5    2   10 1
     6    3    4 1
     7    3   11 1
     8    3   12 1
     9    5    6 1
    10    5    7 1
    11    5    8 1
@<SCITEGIC>ATOM_PROPERTY
Formal Charge
SciTegic.value.StringValue
1 0
2 0
3 0
4 0
5 0
6 0
7 0
8 0
9 0
10 0
11 0
12 0

@<SCITEGIC>ATOM_PROPERTY
pdb_tempFactor
SciTegic.value.DoubleValue
1 0.00
2 0.00
3 0.00
4 0.00
5 0.00
6 0.00
7 0.00
8 0.00
9 0.00
10 0.00
11 0.00
12 0.00

@<SCITEGIC>ATOM_PROPERTY
pdb_occupancy
SciTegic.value.DoubleValue
1 1.00
2 1.00
3 1.00
4 1.00
5 1.00
6 1.00
7 1.00
8 1.00
9 1.00
10 1.00
11 1.00
12 1.00

#	copyright 2023 drugdesign.org
#	Creation time:	2024-01-11T10:58:44Z

@<TRIPOS>MOLECULE
propanol_360.sd
   12    11     0 0 0
SMALL
USER_CHARGES


@<TRIPOS>ATOM
      1 H1            0.000000    0.000000    0.000000 H        1 SUBUNIT    0.2100
      2 C2            2.945200    1.441100   -0.000700 C.3      1 SUBUNIT   -0.0327
      3 C3            1.414900    1.350200    0.000000 C.3      1 SUBUNIT    0.0429
      4 O4            0.950000    0.000000    0.000000 O.3      1 SUBUNIT   -0.3962
      5 C5            3.610700    0.091900    0.293500 C.3      1 SUBUNIT   -0.0632
      6 H6            3.296700   -0.278500    1.289400 H        1 SUBUNIT    0.0231
      7 H7            3.318100   -0.652300   -0.473500 H        1 SUBUNIT    0.0231
      8 H8            4.713300    0.200900    0.283800 H        1 SUBUNIT    0.0231
      9 H9            3.293800    1.820700   -0.981500 H        1 SUBUNIT    0.0287
     10 H10           3.272800    2.187700    0.749600 H        1 SUBUNIT    0.0287
     11 H11           1.011300    1.881500   -0.884600 H        1 SUBUNIT    0.0563
     12 H12           1.012200    1.881200    0.885100 H        1 SUBUNIT    0.0563
@<TRIPOS>BOND
     1    1    4 1
     2    2    5 1
     3    2    3 1
     4    2    9 1
     5    2   10 1
     6    3    4 1
     7    3   11 1
     8    3   12 1
     9    5    6 1
    10    5    7 1
    11    5    8 1
@<SCITEGIC>ATOM_PROPERTY
Formal Charge
SciTegic.value.StringValue
1 0
2 0
3 0
4 0
5 0
6 0
7 0
8 0
9 0
10 0
11 0
12 0

@<SCITEGIC>ATOM_PROPERTY
pdb_tempFactor
SciTegic.value.DoubleValue
1 0.00
2 0.00
3 0.00
4 0.00
5 0.00
6 0.00
7 0.00
8 0.00
9 0.00
10 0.00
11 0.00
12 0.00

@<SCITEGIC>ATOM_PROPERTY
pdb_occupancy
SciTegic.value.DoubleValue
1 1.00
2 1.00
3 1.00
4 1.00
5 1.00
6 1.00
7 1.00
8 1.00
9 1.00
10 1.00
11 1.00
12 1.00

#	copyright 2023 drugdesign.org
#	Creation time:	2024-01-11T10:58:44Z

@<TRIPOS>MOLECULE
propanol_360.sd
   12    11     0 0 0
SMALL
USER_CHARGES


@<TRIPOS>ATOM
      1 H1            0.000000    0.000000    0.000000 H        1 SUBUNIT    0.2100
      2 C2            2.945200    1.441100   -0.000700 C.3      1 SUBUNIT   -0.0327
      3 C3            1.414900    1.350200    0.000000 C.3      1 SUBUNIT    0.0429
      4 O4            0.950000    0.000000    0.000000 O.3      1 SUBUNIT   -0.3962
      5 C5            3.611000    0.086900    0.269300 C.3      1 SUBUNIT   -0.0632
      6 H6            3.298000   -0.300700    1.258900 H        1 SUBUNIT    0.0231
      7 H7            3.317600   -0.643800   -0.510300 H        1 SUBUNIT    0.0231
      8 H8            4.713600    0.196200    0.260300 H        1 SUBUNIT    0.0231
      9 H9            3.292800    1.837700   -0.975100 H        1 SUBUNIT    0.0287
     10 H10           3.273600    2.174600    0.762100 H        1 SUBUNIT    0.0287
     11 H11           1.011300    1.881500   -0.884600 H        1 SUBUNIT    0.0563
     12 H12           1.012200    1.881200    0.885100 H        1 SUBUNIT    0.0563
@<TRIPOS>BOND
     1    1    4 1
     2    2    5 1
     3    2    3 1
     4    2    9 1
     5    2   10 1
     6    3    4 1
     7    3   11 1
     8    3   12 1
     9    5    6 1
    10    5    7 1
    11    5    8 1
@<SCITEGIC>ATOM_PROPERTY
Formal Charge
SciTegic.value.StringValue
1 0
2 0
3 0
4 0
5 0
6 0
7 0
8 0
9 0
10 0
11 0
12 0

@<SCITEGIC>ATOM_PROPERTY
pdb_tempFactor
SciTegic.value.DoubleValue
1 0.00
2 0.00
3 0.00
4 0.00
5 0.00
6 0.00
7 0.00
8 0.00
9 0.00
10 0.00
11 0.00
12 0.00

@<SCITEGIC>ATOM_PROPERTY
pdb_occupancy
SciTegic.value.DoubleValue
1 1.00
2 1.00
3 1.00
4 1.00
5 1.00
6 1.00
7 1.00
8 1.00
9 1.00
10 1.00
11 1.00
12 1.00

#	copyright 2023 drugdesign.org
#	Creation time:	2024-01-11T10:58:44Z

@<TRIPOS>MOLECULE
propanol_360.sd
   12    11     0 0 0
SMALL
USER_CHARGES


@<TRIPOS>ATOM
      1 H1            0.000000    0.000000    0.000000 H        1 SUBUNIT    0.2100
      2 C2            2.945200    1.441100   -0.000700 C.3      1 SUBUNIT   -0.0327
      3 C3            1.414900    1.350200    0.000000 C.3      1 SUBUNIT    0.0429
      4 O4            0.950000    0.000000    0.000000 O.3      1 SUBUNIT   -0.3962
      5 C5            3.611300    0.082400    0.244900 C.3      1 SUBUNIT   -0.0632
      6 H6            3.299300   -0.322400    1.228000 H        1 SUBUNIT    0.0231
      7 H7            3.317000   -0.634600   -0.546900 H        1 SUBUNIT    0.0231
      8 H8            4.713800    0.191800    0.236700 H        1 SUBUNIT    0.0231
      9 H9            3.291800    1.854600   -0.968500 H        1 SUBUNIT    0.0287
     10 H10           3.274400    2.161200    0.774500 H        1 SUBUNIT    0.0287
     11 H11           1.011300    1.881500   -0.884600 H        1 SUBUNIT    0.0563
     12 H12           1.012200    1.881200    0.885100 H        1 SUBUNIT    0.0563
@<TRIPOS>BOND
     1    1    4 1
     2    2    5 1
     3    2    3 1
     4    2    9 1
     5    2   10 1
     6    3    4 1
     7    3   11 1
     8    3   12 1
     9    5    6 1
    10    5    7 1
    11    5    8 1
@<SCITEGIC>ATOM_PROPERTY
Formal Charge
SciTegic.value.StringValue
1 0
2 0
3 0
4 0
5 0
6 0
7 0
8 0
9 0
10 0
11 0
12 0

@<SCITEGIC>ATOM_PROPERTY
pdb_tempFactor
SciTegic.value.DoubleValue
1 0.00
2 0.00
3 0.00
4 0.00
5 0.00
6 0.00
7 0.00
8 0.00
9 0.00
10 0.00
11 0.00
12 0.00

@<SCITEGIC>ATOM_PROPERTY
pdb_occupancy
SciTegic.value.DoubleValue
1 1.00
2 1.00
3 1.00
4 1.00
5 1.00
6 1.00
7 1.00
8 1.00
9 1.00
10 1.00
11 1.00
12 1.00

#	copyright 2023 drugdesign.org
#	Creation time:	2024-01-11T10:58:44Z

@<TRIPOS>MOLECULE
propanol_360.sd
   12    11     0 0 0
SMALL
USER_CHARGES


@<TRIPOS>ATOM
      1 H1            0.000000    0.000000    0.000000 H        1 SUBUNIT    0.2100
      2 C2            2.945200    1.441100   -0.000700 C.3      1 SUBUNIT   -0.0327
      3 C3            1.414900    1.350200    0.000000 C.3      1 SUBUNIT    0.0429
      4 O4            0.950000    0.000000    0.000000 O.3      1 SUBUNIT   -0.3962
      5 C5            3.611500    0.078400    0.220500 C.3      1 SUBUNIT   -0.0632
      6 H6            3.300500   -0.343500    1.196700 H        1 SUBUNIT    0.0231
      7 H7            3.316400   -0.624800   -0.583400 H        1 SUBUNIT    0.0231
      8 H8            4.714000    0.187900    0.213100 H        1 SUBUNIT    0.0231
      9 H9            3.290800    1.871400   -0.961500 H        1 SUBUNIT    0.0287
     10 H10           3.275200    2.147500    0.786500 H        1 SUBUNIT    0.0287
     11 H11           1.011300    1.881500   -0.884600 H        1 SUBUNIT    0.0563
     12 H12           1.012200    1.881200    0.885100 H        1 SUBUNIT    0.0563
@<TRIPOS>BOND
     1    1    4 1
     2    2    5 1
     3    2    3 1
     4    2    9 1
     5    2   10 1
     6    3    4 1
     7    3   11 1
     8    3   12 1
     9    5    6 1
    10    5    7 1
    11    5    8 1
@<SCITEGIC>ATOM_PROPERTY
Formal Charge
SciTegic.value.StringValue
1 0
2 0
3 0
4 0
5 0
6 0
7 0
8 0
9 0
10 0
11 0
12 0

@<SCITEGIC>ATOM_PROPERTY
pdb_tempFactor
SciTegic.value.DoubleValue
1 0.00
2 0.00
3 0.00
4 0.00
5 0.00
6 0.00
7 0.00
8 0.00
9 0.00
10 0.00
11 0.00
12 0.00

@<SCITEGIC>ATOM_PROPERTY
pdb_occupancy
SciTegic.value.DoubleValue
1 1.00
2 1.00
3 1.00
4 1.00
5 1.00
6 1.00
7 1.00
8 1.00
9 1.00
10 1.00
11 1.00
12 1.00

#	copyright 2023 drugdesign.org
#	Creation time:	2024-01-11T10:58:44Z

@<TRIPOS>MOLECULE
propanol_360.sd
   12    11     0 0 0
SMALL
USER_CHARGES


@<TRIPOS>ATOM
      1 H1            0.000000    0.000000    0.000000 H        1 SUBUNIT    0.2100
      2 C2            2.945200    1.441100   -0.000700 C.3      1 SUBUNIT   -0.0327
      3 C3            1.414900    1.350200    0.000000 C.3      1 SUBUNIT    0.0429
      4 O4            0.950000    0.000000    0.000000 O.3      1 SUBUNIT   -0.3962
      5 C5            3.611700    0.074700    0.196100 C.3      1 SUBUNIT   -0.0632
      6 H6            3.301700   -0.364100    1.165100 H        1 SUBUNIT    0.0231
      7 H7            3.315800   -0.614300   -0.619600 H        1 SUBUNIT    0.0231
      8 H8            4.714200    0.184300    0.189400 H        1 SUBUNIT    0.0231
      9 H9            3.289800    1.888100   -0.954200 H        1 SUBUNIT    0.0287
     10 H10           3.276000    2.133700    0.798400 H        1 SUBUNIT    0.0287
     11 H11           1.011300    1.881500   -0.884600 H        1 SUBUNIT    0.0563
     12 H12           1.012200    1.881200    0.885100 H        1 SUBUNIT    0.0563
@<TRIPOS>BOND
     1    1    4 1
     2    2    5 1
     3    2    3 1
     4    2    9 1
     5    2   10 1
     6    3    4 1
     7    3   11 1
     8    3   12 1
     9    5    6 1
    10    5    7 1
    11    5    8 1
@<SCITEGIC>ATOM_PROPERTY
Formal Charge
SciTegic.value.StringValue
1 0
2 0
3 0
4 0
5 0
6 0
7 0
8 0
9 0
10 0
11 0
12 0

@<SCITEGIC>ATOM_PROPERTY
pdb_tempFactor
SciTegic.value.DoubleValue
1 0.00
2 0.00
3 0.00
4 0.00
5 0.00
6 0.00
7 0.00
8 0.00
9 0.00
10 0.00
11 0.00
12 0.00

@<SCITEGIC>ATOM_PROPERTY
pdb_occupancy
SciTegic.value.DoubleValue
1 1.00
2 1.00
3 1.00
4 1.00
5 1.00
6 1.00
7 1.00
8 1.00
9 1.00
10 1.00
11 1.00
12 1.00

#	copyright 2023 drugdesign.org
#	Creation time:	2024-01-11T10:58:44Z

@<TRIPOS>MOLECULE
propanol_360.sd
   12    11     0 0 0
SMALL
USER_CHARGES


@<TRIPOS>ATOM
      1 H1            0.000000    0.000000    0.000000 H        1 SUBUNIT    0.2100
      2 C2            2.945200    1.441100   -0.000700 C.3      1 SUBUNIT   -0.0327
      3 C3            1.414900    1.350200    0.000000 C.3      1 SUBUNIT    0.0429
      4 O4            0.950000    0.000000    0.000000 O.3      1 SUBUNIT   -0.3962
      5 C5            3.611900    0.071500    0.171600 C.3      1 SUBUNIT   -0.0632
      6 H6            3.302900   -0.384200    1.133100 H        1 SUBUNIT    0.0231
      7 H7            3.315100   -0.603200   -0.655700 H        1 SUBUNIT    0.0231
      8 H8            4.714400    0.181200    0.165600 H        1 SUBUNIT    0.0231
      9 H9            3.288900    1.904600   -0.946600 H        1 SUBUNIT    0.0287
     10 H10           3.276900    2.119700    0.810000 H        1 SUBUNIT    0.0287
     11 H11           1.011300    1.881500   -0.884600 H        1 SUBUNIT    0.0563
     12 H12           1.012200    1.881200    0.885100 H        1 SUBUNIT    0.0563
@<TRIPOS>BOND
     1    1    4 1
     2    2    5 1
     3    2    3 1
     4    2    9 1
     5    2   10 1
     6    3    4 1
     7    3   11 1
     8    3   12 1
     9    5    6 1
    10    5    7 1
    11    5    8 1
@<SCITEGIC>ATOM_PROPERTY
Formal Charge
SciTegic.value.StringValue
1 0
2 0
3 0
4 0
5 0
6 0
7 0
8 0
9 0
10 0
11 0
12 0

@<SCITEGIC>ATOM_PROPERTY
pdb_tempFactor
SciTegic.value.DoubleValue
1 0.00
2 0.00
3 0.00
4 0.00
5 0.00
6 0.00
7 0.00
8 0.00
9 0.00
10 0.00
11 0.00
12 0.00

@<SCITEGIC>ATOM_PROPERTY
pdb_occupancy
SciTegic.value.DoubleValue
1 1.00
2 1.00
3 1.00
4 1.00
5 1.00
6 1.00
7 1.00
8 1.00
9 1.00
10 1.00
11 1.00
12 1.00

#	copyright 2023 drugdesign.org
#	Creation time:	2024-01-11T10:58:44Z

@<TRIPOS>MOLECULE
propanol_360.sd
   12    11     0 0 0
SMALL
USER_CHARGES


@<TRIPOS>ATOM
      1 H1            0.000000    0.000000    0.000000 H        1 SUBUNIT    0.2100
      2 C2            2.945200    1.441100   -0.000700 C.3      1 SUBUNIT   -0.0327
      3 C3            1.414900    1.350200    0.000000 C.3      1 SUBUNIT    0.0429
      4 O4            0.950000    0.000000    0.000000 O.3      1 SUBUNIT   -0.3962
      5 C5            3.612000    0.068700    0.147000 C.3      1 SUBUNIT   -0.0632
      6 H6            3.304000   -0.403600    1.100800 H        1 SUBUNIT    0.0231
      7 H7            3.314400   -0.591500   -0.691600 H        1 SUBUNIT    0.0231
      8 H8            4.714600    0.178500    0.141800 H        1 SUBUNIT    0.0231
      9 H9            3.287900    1.921000   -0.938700 H        1 SUBUNIT    0.0287
     10 H10           3.277700    2.105500    0.821300 H        1 SUBUNIT    0.0287
     11 H11           1.011300    1.881500   -0.884600 H        1 SUBUNIT    0.0563
     12 H12           1.012200    1.881200    0.885100 H        1 SUBUNIT    0.0563
@<TRIPOS>BOND
     1    1    4 1
     2    2    5 1
     3    2    3 1
     4    2    9 1
     5    2   10 1
     6    3    4 1
     7    3   11 1
     8    3   12 1
     9    5    6 1
    10    5    7 1
    11    5    8 1
@<SCITEGIC>ATOM_PROPERTY
Formal Charge
SciTegic.value.StringValue
1 0
2 0
3 0
4 0
5 0
6 0
7 0
8 0
9 0
10 0
11 0
12 0

@<SCITEGIC>ATOM_PROPERTY
pdb_tempFactor
SciTegic.value.DoubleValue
1 0.00
2 0.00
3 0.00
4 0.00
5 0.00
6 0.00
7 0.00
8 0.00
9 0.00
10 0.00
11 0.00
12 0.00

@<SCITEGIC>ATOM_PROPERTY
pdb_occupancy
SciTegic.value.DoubleValue
1 1.00
2 1.00
3 1.00
4 1.00
5 1.00
6 1.00
7 1.00
8 1.00
9 1.00
10 1.00
11 1.00
12 1.00

#	copyright 2023 drugdesign.org
#	Creation time:	2024-01-11T10:58:44Z

@<TRIPOS>MOLECULE
propanol_360.sd
   12    11     0 0 0
SMALL
USER_CHARGES


@<TRIPOS>ATOM
      1 H1            0.000000    0.000000    0.000000 H        1 SUBUNIT    0.2100
      2 C2            2.945200    1.441100   -0.000700 C.3      1 SUBUNIT   -0.0327
      3 C3            1.414900    1.350200    0.000000 C.3      1 SUBUNIT    0.0429
      4 O4            0.950000    0.000000    0.000000 O.3      1 SUBUNIT   -0.3962
      5 C5            3.612200    0.066300    0.122400 C.3      1 SUBUNIT   -0.0632
      6 H6            3.305200   -0.422600    1.068100 H        1 SUBUNIT    0.0231
      7 H7            3.313600   -0.579100   -0.727300 H        1 SUBUNIT    0.0231
      8 H8            4.714700    0.176200    0.118000 H        1 SUBUNIT    0.0231
      9 H9            3.286900    1.937300   -0.930600 H        1 SUBUNIT    0.0287
     10 H10           3.278600    2.091100    0.832400 H        1 SUBUNIT    0.0287
     11 H11           1.011300    1.881500   -0.884600 H        1 SUBUNIT    0.0563
     12 H12           1.012200    1.881200    0.885100 H        1 SUBUNIT    0.0563
@<TRIPOS>BOND
     1    1    4 1
     2    2    5 1
     3    2    3 1
     4    2    9 1
     5    2   10 1
     6    3    4 1
     7    3   11 1
     8    3   12 1
     9    5    6 1
    10    5    7 1
    11    5    8 1
@<SCITEGIC>ATOM_PROPERTY
Formal Charge
SciTegic.value.StringValue
1 0
2 0
3 0
4 0
5 0
6 0
7 0
8 0
9 0
10 0
11 0
12 0

@<SCITEGIC>ATOM_PROPERTY
pdb_tempFactor
SciTegic.value.DoubleValue
1 0.00
2 0.00
3 0.00
4 0.00
5 0.00
6 0.00
7 0.00
8 0.00
9 0.00
10 0.00
11 0.00
12 0.00

@<SCITEGIC>ATOM_PROPERTY
pdb_occupancy
SciTegic.value.DoubleValue
1 1.00
2 1.00
3 1.00
4 1.00
5 1.00
6 1.00
7 1.00
8 1.00
9 1.00
10 1.00
11 1.00
12 1.00

#	copyright 2023 drugdesign.org
#	Creation time:	2024-01-11T10:58:44Z

@<TRIPOS>MOLECULE
propanol_360.sd
   12    11     0 0 0
SMALL
USER_CHARGES


@<TRIPOS>ATOM
      1 H1            0.000000    0.000000    0.000000 H        1 SUBUNIT    0.2100
      2 C2            2.945200    1.441100   -0.000700 C.3      1 SUBUNIT   -0.0327
      3 C3            1.414900    1.350200    0.000000 C.3      1 SUBUNIT    0.0429
      4 O4            0.950000    0.000000    0.000000 O.3      1 SUBUNIT   -0.3962
      5 C5            3.612300    0.064400    0.097700 C.3      1 SUBUNIT   -0.0632
      6 H6            3.306200   -0.440900    1.035100 H        1 SUBUNIT    0.0231
      7 H7            3.312900   -0.566200   -0.762800 H        1 SUBUNIT    0.0231
      8 H8            4.714800    0.174400    0.094100 H        1 SUBUNIT    0.0231
      9 H9            3.286000    1.953400   -0.922200 H        1 SUBUNIT    0.0287
     10 H10           3.279500    2.076400    0.843300 H        1 SUBUNIT    0.0287
     11 H11           1.011300    1.881500   -0.884600 H        1 SUBUNIT    0.0563
     12 H12           1.012200    1.881200    0.885100 H        1 SUBUNIT    0.0563
@<TRIPOS>BOND
     1    1    4 1
     2    2    5 1
     3    2    3 1
     4    2    9 1
     5    2   10 1
     6    3    4 1
     7    3   11 1
     8    3   12 1
     9    5    6 1
    10    5    7 1
    11    5    8 1
@<SCITEGIC>ATOM_PROPERTY
Formal Charge
SciTegic.value.StringValue
1 0
2 0
3 0
4 0
5 0
6 0
7 0
8 0
9 0
10 0
11 0
12 0

@<SCITEGIC>ATOM_PROPERTY
pdb_tempFactor
SciTegic.value.DoubleValue
1 0.00
2 0.00
3 0.00
4 0.00
5 0.00
6 0.00
7 0.00
8 0.00
9 0.00
10 0.00
11 0.00
12 0.00

@<SCITEGIC>ATOM_PROPERTY
pdb_occupancy
SciTegic.value.DoubleValue
1 1.00
2 1.00
3 1.00
4 1.00
5 1.00
6 1.00
7 1.00
8 1.00
9 1.00
10 1.00
11 1.00
12 1.00

#	copyright 2023 drugdesign.org
#	Creation time:	2024-01-11T10:58:44Z

@<TRIPOS>MOLECULE
propanol_360.sd
   12    11     0 0 0
SMALL
USER_CHARGES


@<TRIPOS>ATOM
      1 H1            0.000000    0.000000    0.000000 H        1 SUBUNIT    0.2100
      2 C2            2.945200    1.441100   -0.000700 C.3      1 SUBUNIT   -0.0327
      3 C3            1.414900    1.350200    0.000000 C.3      1 SUBUNIT    0.0429
      4 O4            0.950000    0.000000    0.000000 O.3      1 SUBUNIT   -0.3962
      5 C5            3.612300    0.062900    0.073000 C.3      1 SUBUNIT   -0.0632
      6 H6            3.307300   -0.458600    1.001800 H        1 SUBUNIT    0.0231
      7 H7            3.312000   -0.552600   -0.798000 H        1 SUBUNIT    0.0231
      8 H8            4.714900    0.172900    0.070200 H        1 SUBUNIT    0.0231
      9 H9            3.285000    1.969400   -0.913400 H        1 SUBUNIT    0.0287
     10 H10           3.280300    2.061600    0.853900 H        1 SUBUNIT    0.0287
     11 H11           1.011300    1.881500   -0.884600 H        1 SUBUNIT    0.0563
     12 H12           1.012200    1.881200    0.885100 H        1 SUBUNIT    0.0563
@<TRIPOS>BOND
     1    1    4 1
     2    2    5 1
     3    2    3 1
     4    2    9 1
     5    2   10 1
     6    3    4 1
     7    3   11 1
     8    3   12 1
     9    5    6 1
    10    5    7 1
    11    5    8 1
@<SCITEGIC>ATOM_PROPERTY
Formal Charge
SciTegic.value.StringValue
1 0
2 0
3 0
4 0
5 0
6 0
7 0
8 0
9 0
10 0
11 0
12 0

@<SCITEGIC>ATOM_PROPERTY
pdb_tempFactor
SciTegic.value.DoubleValue
1 0.00
2 0.00
3 0.00
4 0.00
5 0.00
6 0.00
7 0.00
8 0.00
9 0.00
10 0.00
11 0.00
12 0.00

@<SCITEGIC>ATOM_PROPERTY
pdb_occupancy
SciTegic.value.DoubleValue
1 1.00
2 1.00
3 1.00
4 1.00
5 1.00
6 1.00
7 1.00
8 1.00
9 1.00
10 1.00
11 1.00
12 1.00

#	copyright 2023 drugdesign.org
#	Creation time:	2024-01-11T10:58:44Z

@<TRIPOS>MOLECULE
propanol_360.sd
   12    11     0 0 0
SMALL
USER_CHARGES


@<TRIPOS>ATOM
      1 H1            0.000000    0.000000    0.000000 H        1 SUBUNIT    0.2100
      2 C2            2.945200    1.441100   -0.000700 C.3      1 SUBUNIT   -0.0327
      3 C3            1.414900    1.350200    0.000000 C.3      1 SUBUNIT    0.0429
      4 O4            0.950000    0.000000    0.000000 O.3      1 SUBUNIT   -0.3962
      5 C5            3.612400    0.061800    0.048300 C.3      1 SUBUNIT   -0.0632
      6 H6            3.308300   -0.475800    0.968100 H        1 SUBUNIT    0.0231
      7 H7            3.311200   -0.538400   -0.833000 H        1 SUBUNIT    0.0231
      8 H8            4.714900    0.171900    0.046200 H        1 SUBUNIT    0.0231
      9 H9            3.284100    1.985200   -0.904400 H        1 SUBUNIT    0.0287
     10 H10           3.281200    2.046700    0.864200 H        1 SUBUNIT    0.0287
     11 H11           1.011300    1.881500   -0.884600 H        1 SUBUNIT    0.0563
     12 H12           1.012200    1.881200    0.885100 H        1 SUBUNIT    0.0563
@<TRIPOS>BOND
     1    1    4 1
     2    2    5 1
     3    2    3 1
     4    2    9 1
     5    2   10 1
     6    3    4 1
     7    3   11 1
     8    3   12 1
     9    5    6 1
    10    5    7 1
    11    5    8 1
@<SCITEGIC>ATOM_PROPERTY
Formal Charge
SciTegic.value.StringValue
1 0
2 0
3 0
4 0
5 0
6 0
7 0
8 0
9 0
10 0
11 0
12 0

@<SCITEGIC>ATOM_PROPERTY
pdb_tempFactor
SciTegic.value.DoubleValue
1 0.00
2 0.00
3 0.00
4 0.00
5 0.00
6 0.00
7 0.00
8 0.00
9 0.00
10 0.00
11 0.00
12 0.00

@<SCITEGIC>ATOM_PROPERTY
pdb_occupancy
SciTegic.value.DoubleValue
1 1.00
2 1.00
3 1.00
4 1.00
5 1.00
6 1.00
7 1.00
8 1.00
9 1.00
10 1.00
11 1.00
12 1.00

#	copyright 2023 drugdesign.org
#	Creation time:	2024-01-11T10:58:44Z

@<TRIPOS>MOLECULE
propanol_360.sd
   12    11     0 0 0
SMALL
USER_CHARGES


@<TRIPOS>ATOM
      1 H1            0.000000    0.000000    0.000000 H        1 SUBUNIT    0.2100
      2 C2            2.945200    1.441100   -0.000700 C.3      1 SUBUNIT   -0.0327
      3 C3            1.414900    1.350200    0.000000 C.3      1 SUBUNIT    0.0429
      4 O4            0.950000    0.000000    0.000000 O.3      1 SUBUNIT   -0.3962
      5 C5            3.612400    0.061200    0.023600 C.3      1 SUBUNIT   -0.0632
      6 H6            3.309200   -0.492400    0.934200 H        1 SUBUNIT    0.0231
      7 H7            3.310300   -0.523600   -0.867800 H        1 SUBUNIT    0.0231
      8 H8            4.714900    0.171200    0.022300 H        1 SUBUNIT    0.0231
      9 H9            3.283200    2.000900   -0.895200 H        1 SUBUNIT    0.0287
     10 H10           3.282100    2.031500    0.874300 H        1 SUBUNIT    0.0287
     11 H11           1.011300    1.881500   -0.884600 H        1 SUBUNIT    0.0563
     12 H12           1.012200    1.881200    0.885100 H        1 SUBUNIT    0.0563
@<TRIPOS>BOND
     1    1    4 1
     2    2    5 1
     3    2    3 1
     4    2    9 1
     5    2   10 1
     6    3    4 1
     7    3   11 1
     8    3   12 1
     9    5    6 1
    10    5    7 1
    11    5    8 1
@<SCITEGIC>ATOM_PROPERTY
Formal Charge
SciTegic.value.StringValue
1 0
2 0
3 0
4 0
5 0
6 0
7 0
8 0
9 0
10 0
11 0
12 0

@<SCITEGIC>ATOM_PROPERTY
pdb_tempFactor
SciTegic.value.DoubleValue
1 0.00
2 0.00
3 0.00
4 0.00
5 0.00
6 0.00
7 0.00
8 0.00
9 0.00
10 0.00
11 0.00
12 0.00

@<SCITEGIC>ATOM_PROPERTY
pdb_occupancy
SciTegic.value.DoubleValue
1 1.00
2 1.00
3 1.00
4 1.00
5 1.00
6 1.00
7 1.00
8 1.00
9 1.00
10 1.00
11 1.00
12 1.00

