#	copyright 2023 drugdesign.org
#	Creation time:	2024-01-11T10:58:47Z

@<TRIPOS>MOLECULE
cyclooctane.sd
   24    24     0 0 0
SMALL
USER_CHARGES


@<TRIPOS>ATOM
      1 C1           -0.190300   -0.056300    0.662300 C.3      1 SUBUNIT   -0.0532
      2 C2           -0.175900    1.259300   -0.199300 C.3      1 SUBUNIT   -0.0532
      3 C3            1.006700    2.221100    0.043400 C.3      1 SUBUNIT   -0.0532
      4 C4            2.019700    1.883900   -1.112100 C.3      1 SUBUNIT   -0.0532
      5 C5            2.579500    0.480300   -1.281100 C.3      1 SUBUNIT   -0.0532
      6 C6            2.958300   -0.209300    0.011200 C.3      1 SUBUNIT   -0.0532
      7 C7            2.041800   -1.454100    0.201400 C.3      1 SUBUNIT   -0.0532
      8 C8            0.498600   -1.237300   -0.091800 C.3      1 SUBUNIT   -0.0532
      9 H9            0.261700    0.073400    1.673200 H        1 SUBUNIT    0.0266
     10 H10          -1.254900   -0.304700    0.895500 H        1 SUBUNIT    0.0266
     11 H11          -0.336700    1.012500   -1.274600 H        1 SUBUNIT    0.0266
     12 H12          -1.044200    1.913900    0.060000 H        1 SUBUNIT    0.0266
     13 H13           0.737300    3.305900    0.041700 H        1 SUBUNIT    0.0266
     14 H14           1.460000    1.930900    1.019400 H        1 SUBUNIT    0.0266
     15 H15           1.305600    1.974700   -1.966300 H        1 SUBUNIT    0.0266
     16 H16           2.822100    2.660800   -1.094400 H        1 SUBUNIT    0.0266
     17 H17           1.911300   -0.149200   -1.910100 H        1 SUBUNIT    0.0266
     18 H18           3.487100    0.755100   -1.871300 H        1 SUBUNIT    0.0266
     19 H19           4.060200   -0.348300    0.130600 H        1 SUBUNIT    0.0266
     20 H20           2.930400    0.533000    0.839800 H        1 SUBUNIT    0.0266
     21 H21           2.475800   -2.290800   -0.397900 H        1 SUBUNIT    0.0266
     22 H22           2.273200   -1.870700    1.211800 H        1 SUBUNIT    0.0266
     23 H23           0.177300   -1.464000   -1.134600 H        1 SUBUNIT    0.0266
     24 H24           0.049000   -2.105900    0.449300 H        1 SUBUNIT    0.0266
@<TRIPOS>BOND
     1    1    2 1
     2    1    8 1
     3    1    9 1
     4    1   10 1
     5    2    3 1
     6    2   11 1
     7    2   12 1
     8    3    4 1
     9    3   13 1
    10    3   14 1
    11    4    5 1
    12    4   15 1
    13    4   16 1
    14    5    6 1
    15    5   17 1
    16    5   18 1
    17    6    7 1
    18    6   19 1
    19    6   20 1
    20    7    8 1
    21    7   21 1
    22    7   22 1
    23    8   23 1
    24    8   24 1
@<SCITEGIC>ATOM_PROPERTY
Formal Charge
SciTegic.value.StringValue
1 0
2 0
3 0
4 0
5 0
6 0
7 0
8 0
9 0
10 0
11 0
12 0
13 0
14 0
15 0
16 0
17 0
18 0
19 0
20 0
21 0
22 0
23 0
24 0

@<SCITEGIC>ATOM_PROPERTY
pdb_tempFactor
SciTegic.value.DoubleValue
1 0.00
2 0.00
3 0.00
4 0.00
5 0.00
6 0.00
7 0.00
8 0.00
9 0.00
10 0.00
11 0.00
12 0.00
13 0.00
14 0.00
15 0.00
16 0.00
17 0.00
18 0.00
19 0.00
20 0.00
21 0.00
22 0.00
23 0.00
24 0.00

@<SCITEGIC>ATOM_PROPERTY
pdb_occupancy
SciTegic.value.DoubleValue
1 1.00
2 1.00
3 1.00
4 1.00
5 1.00
6 1.00
7 1.00
8 1.00
9 1.00
10 1.00
11 1.00
12 1.00
13 1.00
14 1.00
15 1.00
16 1.00
17 1.00
18 1.00
19 1.00
20 1.00
21 1.00
22 1.00
23 1.00
24 1.00

#	copyright 2023 drugdesign.org
#	Creation time:	2024-01-11T10:58:47Z

@<TRIPOS>MOLECULE
cyclooctane.sd
   24    24     0 0 0
SMALL
USER_CHARGES


@<TRIPOS>ATOM
      1 C1           -0.068400   -0.014700    0.674400 C.3      1 SUBUNIT   -0.0532
      2 C2           -0.257100    1.244700   -0.226900 C.3      1 SUBUNIT   -0.0532
      3 C3            0.938400    2.224800   -0.121900 C.3      1 SUBUNIT   -0.0532
      4 C4            2.087900    2.031800   -1.090000 C.3      1 SUBUNIT   -0.0532
      5 C5            2.520800    0.602600   -1.237900 C.3      1 SUBUNIT   -0.0532
      6 C6            2.871000   -0.223300    0.077700 C.3      1 SUBUNIT   -0.0532
      7 C7            2.137300   -1.609400    0.230100 C.3      1 SUBUNIT   -0.0532
      8 C8            0.574500   -1.403400    0.158500 C.3      1 SUBUNIT   -0.0532
      9 H9            0.270000    0.227600    1.708700 H        1 SUBUNIT    0.0266
     10 H10          -1.170100   -0.154900    0.801500 H        1 SUBUNIT    0.0266
     11 H11          -0.294400    0.926400   -1.294700 H        1 SUBUNIT    0.0266
     12 H12          -1.141400    1.867100    0.056100 H        1 SUBUNIT    0.0266
     13 H13           0.600600    3.284000   -0.237500 H        1 SUBUNIT    0.0266
     14 H14           1.340400    2.123800    0.912700 H        1 SUBUNIT    0.0266
     15 H15           1.799600    2.412500   -2.099900 H        1 SUBUNIT    0.0266
     16 H16           2.911900    2.762700   -0.904100 H        1 SUBUNIT    0.0266
     17 H17           1.772900    0.168900   -1.938600 H        1 SUBUNIT    0.0266
     18 H18           3.416600    0.632900   -1.904500 H        1 SUBUNIT    0.0266
     19 H19           3.945200   -0.520100    0.002300 H        1 SUBUNIT    0.0266
     20 H20           2.664600    0.319500    1.027000 H        1 SUBUNIT    0.0266
     21 H21           2.440000   -2.158500   -0.694300 H        1 SUBUNIT    0.0266
     22 H22           2.419300   -2.334300    1.031900 H        1 SUBUNIT    0.0266
     23 H23           0.127900   -1.643700   -0.834000 H        1 SUBUNIT    0.0266
     24 H24           0.127800   -2.243300    0.745400 H        1 SUBUNIT    0.0266
@<TRIPOS>BOND
     1    1    2 1
     2    1    8 1
     3    1    9 1
     4    1   10 1
     5    2    3 1
     6    2   11 1
     7    2   12 1
     8    3    4 1
     9    3   13 1
    10    3   14 1
    11    4    5 1
    12    4   15 1
    13    4   16 1
    14    5    6 1
    15    5   17 1
    16    5   18 1
    17    6    7 1
    18    6   19 1
    19    6   20 1
    20    7    8 1
    21    7   21 1
    22    7   22 1
    23    8   23 1
    24    8   24 1
@<SCITEGIC>ATOM_PROPERTY
Formal Charge
SciTegic.value.StringValue
1 0
2 0
3 0
4 0
5 0
6 0
7 0
8 0
9 0
10 0
11 0
12 0
13 0
14 0
15 0
16 0
17 0
18 0
19 0
20 0
21 0
22 0
23 0
24 0

@<SCITEGIC>ATOM_PROPERTY
pdb_tempFactor
SciTegic.value.DoubleValue
1 0.00
2 0.00
3 0.00
4 0.00
5 0.00
6 0.00
7 0.00
8 0.00
9 0.00
10 0.00
11 0.00
12 0.00
13 0.00
14 0.00
15 0.00
16 0.00
17 0.00
18 0.00
19 0.00
20 0.00
21 0.00
22 0.00
23 0.00
24 0.00

@<SCITEGIC>ATOM_PROPERTY
pdb_occupancy
SciTegic.value.DoubleValue
1 1.00
2 1.00
3 1.00
4 1.00
5 1.00
6 1.00
7 1.00
8 1.00
9 1.00
10 1.00
11 1.00
12 1.00
13 1.00
14 1.00
15 1.00
16 1.00
17 1.00
18 1.00
19 1.00
20 1.00
21 1.00
22 1.00
23 1.00
24 1.00

#	copyright 2023 drugdesign.org
#	Creation time:	2024-01-11T10:58:47Z

@<TRIPOS>MOLECULE
cyclooctane.sd
   24    24     0 0 0
SMALL
USER_CHARGES


@<TRIPOS>ATOM
      1 C1           -0.379400   -0.077500    0.523200 C.3      1 SUBUNIT   -0.0532
      2 C2           -0.276000    1.336800   -0.040900 C.3      1 SUBUNIT   -0.0532
      3 C3            0.989000    2.003700    0.056900 C.3      1 SUBUNIT   -0.0532
      4 C4            1.919100    1.826900   -1.122600 C.3      1 SUBUNIT   -0.0532
      5 C5            2.657800    0.565000   -1.350800 C.3      1 SUBUNIT   -0.0532
      6 C6            3.176600   -0.276200   -0.149800 C.3      1 SUBUNIT   -0.0532
      7 C7            2.118000   -1.316800    0.425900 C.3      1 SUBUNIT   -0.0532
      8 C8            0.546600   -1.218800   -0.011400 C.3      1 SUBUNIT   -0.0532
      9 H9           -0.214800   -0.034600    1.625100 H        1 SUBUNIT    0.0266
     10 H10          -1.439800   -0.369000    0.323200 H        1 SUBUNIT    0.0266
     11 H11          -0.649100    1.310200   -1.091200 H        1 SUBUNIT    0.0266
     12 H12          -1.049500    1.909300    0.527800 H        1 SUBUNIT    0.0266
     13 H13           0.716100    3.087300    0.029700 H        1 SUBUNIT    0.0266
     14 H14           1.417300    1.626300    1.014200 H        1 SUBUNIT    0.0266
     15 H15           1.468200    2.104800   -2.106100 H        1 SUBUNIT    0.0266
     16 H16           2.731500    2.568800   -0.929600 H        1 SUBUNIT    0.0266
     17 H17           2.030900   -0.065300   -2.020200 H        1 SUBUNIT    0.0266
     18 H18           3.509000    0.725300   -2.056100 H        1 SUBUNIT    0.0266
     19 H19           4.192300   -0.704300   -0.330900 H        1 SUBUNIT    0.0266
     20 H20           3.459100    0.447800    0.646600 H        1 SUBUNIT    0.0266
     21 H21           2.448900   -2.345800    0.144100 H        1 SUBUNIT    0.0266
     22 H22           2.228200   -1.218200    1.533100 H        1 SUBUNIT    0.0266
     23 H23           0.469100   -1.251500   -1.122800 H        1 SUBUNIT    0.0266
     24 H24          -0.019000   -2.107600    0.361900 H        1 SUBUNIT    0.0266
@<TRIPOS>BOND
     1    1    2 1
     2    1    8 1
     3    1    9 1
     4    1   10 1
     5    2    3 1
     6    2   11 1
     7    2   12 1
     8    3    4 1
     9    3   13 1
    10    3   14 1
    11    4    5 1
    12    4   15 1
    13    4   16 1
    14    5    6 1
    15    5   17 1
    16    5   18 1
    17    6    7 1
    18    6   19 1
    19    6   20 1
    20    7    8 1
    21    7   21 1
    22    7   22 1
    23    8   23 1
    24    8   24 1
@<SCITEGIC>ATOM_PROPERTY
Formal Charge
SciTegic.value.StringValue
1 0
2 0
3 0
4 0
5 0
6 0
7 0
8 0
9 0
10 0
11 0
12 0
13 0
14 0
15 0
16 0
17 0
18 0
19 0
20 0
21 0
22 0
23 0
24 0

@<SCITEGIC>ATOM_PROPERTY
pdb_tempFactor
SciTegic.value.DoubleValue
1 0.00
2 0.00
3 0.00
4 0.00
5 0.00
6 0.00
7 0.00
8 0.00
9 0.00
10 0.00
11 0.00
12 0.00
13 0.00
14 0.00
15 0.00
16 0.00
17 0.00
18 0.00
19 0.00
20 0.00
21 0.00
22 0.00
23 0.00
24 0.00

@<SCITEGIC>ATOM_PROPERTY
pdb_occupancy
SciTegic.value.DoubleValue
1 1.00
2 1.00
3 1.00
4 1.00
5 1.00
6 1.00
7 1.00
8 1.00
9 1.00
10 1.00
11 1.00
12 1.00
13 1.00
14 1.00
15 1.00
16 1.00
17 1.00
18 1.00
19 1.00
20 1.00
21 1.00
22 1.00
23 1.00
24 1.00

#	copyright 2023 drugdesign.org
#	Creation time:	2024-01-11T10:58:47Z

@<TRIPOS>MOLECULE
cyclooctane.sd
   24    24     0 0 0
SMALL
USER_CHARGES


@<TRIPOS>ATOM
      1 C1           -0.316800   -0.079600    0.588100 C.3      1 SUBUNIT   -0.0532
      2 C2           -0.269300    1.213600   -0.330600 C.3      1 SUBUNIT   -0.0532
      3 C3            0.904400    2.134700    0.031300 C.3      1 SUBUNIT   -0.0532
      4 C4            2.053700    1.897400   -0.918600 C.3      1 SUBUNIT   -0.0532
      5 C5            2.481300    0.520700   -1.455500 C.3      1 SUBUNIT   -0.0532
      6 C6            3.086000   -0.325500   -0.280300 C.3      1 SUBUNIT   -0.0532
      7 C7            2.130900   -1.272700    0.407300 C.3      1 SUBUNIT   -0.0532
      8 C8            0.617100   -1.268000    0.062100 C.3      1 SUBUNIT   -0.0532
      9 H9           -0.006000    0.146000    1.634700 H        1 SUBUNIT    0.0266
     10 H10          -1.384500   -0.410600    0.594100 H        1 SUBUNIT    0.0266
     11 H11          -0.332800    1.061100   -1.433100 H        1 SUBUNIT    0.0266
     12 H12          -1.251100    1.701900   -0.113600 H        1 SUBUNIT    0.0266
     13 H13           0.707800    3.218000    0.224100 H        1 SUBUNIT    0.0266
     14 H14           1.182000    1.915900    1.088300 H        1 SUBUNIT    0.0266
     15 H15           1.919700    2.628300   -1.752700 H        1 SUBUNIT    0.0266
     16 H16           3.004100    2.323700   -0.515400 H        1 SUBUNIT    0.0266
     17 H17           1.549100    0.090100   -1.884300 H        1 SUBUNIT    0.0266
     18 H18           3.254800    0.730200   -2.233700 H        1 SUBUNIT    0.0266
     19 H19           3.979000   -0.924100   -0.583500 H        1 SUBUNIT    0.0266
     20 H20           3.502900    0.451400    0.398600 H        1 SUBUNIT    0.0266
     21 H21           2.406400   -2.334500    0.196700 H        1 SUBUNIT    0.0266
     22 H22           2.254100   -1.205400    1.515500 H        1 SUBUNIT    0.0266
     23 H23           0.385700   -1.578900   -0.982900 H        1 SUBUNIT    0.0266
     24 H24           0.209400   -2.101100    0.685800 H        1 SUBUNIT    0.0266
@<TRIPOS>BOND
     1    1    2 1
     2    1    8 1
     3    1    9 1
     4    1   10 1
     5    2    3 1
     6    2   11 1
     7    2   12 1
     8    3    4 1
     9    3   13 1
    10    3   14 1
    11    4    5 1
    12    4   15 1
    13    4   16 1
    14    5    6 1
    15    5   17 1
    16    5   18 1
    17    6    7 1
    18    6   19 1
    19    6   20 1
    20    7    8 1
    21    7   21 1
    22    7   22 1
    23    8   23 1
    24    8   24 1
@<SCITEGIC>ATOM_PROPERTY
Formal Charge
SciTegic.value.StringValue
1 0
2 0
3 0
4 0
5 0
6 0
7 0
8 0
9 0
10 0
11 0
12 0
13 0
14 0
15 0
16 0
17 0
18 0
19 0
20 0
21 0
22 0
23 0
24 0

@<SCITEGIC>ATOM_PROPERTY
pdb_tempFactor
SciTegic.value.DoubleValue
1 0.00
2 0.00
3 0.00
4 0.00
5 0.00
6 0.00
7 0.00
8 0.00
9 0.00
10 0.00
11 0.00
12 0.00
13 0.00
14 0.00
15 0.00
16 0.00
17 0.00
18 0.00
19 0.00
20 0.00
21 0.00
22 0.00
23 0.00
24 0.00

@<SCITEGIC>ATOM_PROPERTY
pdb_occupancy
SciTegic.value.DoubleValue
1 1.00
2 1.00
3 1.00
4 1.00
5 1.00
6 1.00
7 1.00
8 1.00
9 1.00
10 1.00
11 1.00
12 1.00
13 1.00
14 1.00
15 1.00
16 1.00
17 1.00
18 1.00
19 1.00
20 1.00
21 1.00
22 1.00
23 1.00
24 1.00

#	copyright 2023 drugdesign.org
#	Creation time:	2024-01-11T10:58:47Z

@<TRIPOS>MOLECULE
cyclooctane.sd
   24    24     0 0 0
SMALL
USER_CHARGES


@<TRIPOS>ATOM
      1 C1           -0.453600   -0.184900    0.489600 C.3      1 SUBUNIT   -0.0532
      2 C2           -0.392600    1.244500   -0.160400 C.3      1 SUBUNIT   -0.0532
      3 C3            0.920100    2.050900    0.123900 C.3      1 SUBUNIT   -0.0532
      4 C4            2.232600    1.924400   -0.815600 C.3      1 SUBUNIT   -0.0532
      5 C5            2.443500    0.542200   -1.499200 C.3      1 SUBUNIT   -0.0532
      6 C6            3.045700   -0.414000   -0.472900 C.3      1 SUBUNIT   -0.0532
      7 C7            2.132200   -0.937100    0.564100 C.3      1 SUBUNIT   -0.0532
      8 C8            0.715100   -1.187000    0.097800 C.3      1 SUBUNIT   -0.0532
      9 H9           -0.581000   -0.074600    1.591700 H        1 SUBUNIT    0.0266
     10 H10          -1.352300   -0.749200    0.138300 H        1 SUBUNIT    0.0266
     11 H11          -0.580600    1.148400   -1.255100 H        1 SUBUNIT    0.0266
     12 H12          -1.310100    1.768100    0.205300 H        1 SUBUNIT    0.0266
     13 H13           0.570300    3.112200    0.096700 H        1 SUBUNIT    0.0266
     14 H14           1.345900    1.810000    1.125300 H        1 SUBUNIT    0.0266
     15 H15           2.082600    2.597600   -1.694300 H        1 SUBUNIT    0.0266
     16 H16           3.197700    2.245000   -0.353700 H        1 SUBUNIT    0.0266
     17 H17           1.534900    0.188800   -2.035900 H        1 SUBUNIT    0.0266
     18 H18           3.257800    0.393900   -2.249200 H        1 SUBUNIT    0.0266
     19 H19           3.388900   -1.304200   -1.053900 H        1 SUBUNIT    0.0266
     20 H20           3.973800   -0.033000    0.008500 H        1 SUBUNIT    0.0266
     21 H21           2.550000   -1.875400    1.003100 H        1 SUBUNIT    0.0266
     22 H22           2.295200   -0.198400    1.386000 H        1 SUBUNIT    0.0266
     23 H23           0.712500   -1.487500   -0.975400 H        1 SUBUNIT    0.0266
     24 H24           0.352300   -2.108800    0.615600 H        1 SUBUNIT    0.0266
@<TRIPOS>BOND
     1    1    2 1
     2    1    8 1
     3    1    9 1
     4    1   10 1
     5    2    3 1
     6    2   11 1
     7    2   12 1
     8    3    4 1
     9    3   13 1
    10    3   14 1
    11    4    5 1
    12    4   15 1
    13    4   16 1
    14    5    6 1
    15    5   17 1
    16    5   18 1
    17    6    7 1
    18    6   19 1
    19    6   20 1
    20    7    8 1
    21    7   21 1
    22    7   22 1
    23    8   23 1
    24    8   24 1
@<SCITEGIC>ATOM_PROPERTY
Formal Charge
SciTegic.value.StringValue
1 0
2 0
3 0
4 0
5 0
6 0
7 0
8 0
9 0
10 0
11 0
12 0
13 0
14 0
15 0
16 0
17 0
18 0
19 0
20 0
21 0
22 0
23 0
24 0

@<SCITEGIC>ATOM_PROPERTY
pdb_tempFactor
SciTegic.value.DoubleValue
1 0.00
2 0.00
3 0.00
4 0.00
5 0.00
6 0.00
7 0.00
8 0.00
9 0.00
10 0.00
11 0.00
12 0.00
13 0.00
14 0.00
15 0.00
16 0.00
17 0.00
18 0.00
19 0.00
20 0.00
21 0.00
22 0.00
23 0.00
24 0.00

@<SCITEGIC>ATOM_PROPERTY
pdb_occupancy
SciTegic.value.DoubleValue
1 1.00
2 1.00
3 1.00
4 1.00
5 1.00
6 1.00
7 1.00
8 1.00
9 1.00
10 1.00
11 1.00
12 1.00
13 1.00
14 1.00
15 1.00
16 1.00
17 1.00
18 1.00
19 1.00
20 1.00
21 1.00
22 1.00
23 1.00
24 1.00

#	copyright 2023 drugdesign.org
#	Creation time:	2024-01-11T10:58:47Z

@<TRIPOS>MOLECULE
cyclooctane.sd
   24    24     0 0 0
SMALL
USER_CHARGES


@<TRIPOS>ATOM
      1 C1           -0.367900   -0.193900    0.643100 C.3      1 SUBUNIT   -0.0532
      2 C2           -0.209200    1.015300   -0.286900 C.3      1 SUBUNIT   -0.0532
      3 C3            0.930500    2.053400    0.102800 C.3      1 SUBUNIT   -0.0532
      4 C4            2.229200    1.867800   -0.694900 C.3      1 SUBUNIT   -0.0532
      5 C5            2.468000    0.597900   -1.566100 C.3      1 SUBUNIT   -0.0532
      6 C6            2.947800   -0.627000   -0.729300 C.3      1 SUBUNIT   -0.0532
      7 C7            2.078800   -0.785900    0.535000 C.3      1 SUBUNIT   -0.0532
      8 C8            0.639500   -1.264900    0.419700 C.3      1 SUBUNIT   -0.0532
      9 H9           -0.375300    0.171700    1.696400 H        1 SUBUNIT    0.0266
     10 H10          -1.377100   -0.587400    0.367000 H        1 SUBUNIT    0.0266
     11 H11          -0.195100    0.827000   -1.385700 H        1 SUBUNIT    0.0266
     12 H12          -1.223200    1.484200   -0.247800 H        1 SUBUNIT    0.0266
     13 H13           0.475400    3.051500   -0.111900 H        1 SUBUNIT    0.0266
     14 H14           1.073500    2.082900    1.207700 H        1 SUBUNIT    0.0266
     15 H15           2.427200    2.799700   -1.278100 H        1 SUBUNIT    0.0266
     16 H16           3.082100    1.936100    0.023100 H        1 SUBUNIT    0.0266
     17 H17           1.645900    0.482200   -2.307200 H        1 SUBUNIT    0.0266
     18 H18           3.344800    0.908200   -2.184700 H        1 SUBUNIT    0.0266
     19 H19           2.744400   -1.481200   -1.419800 H        1 SUBUNIT    0.0266
     20 H20           4.001600   -0.625600   -0.371800 H        1 SUBUNIT    0.0266
     21 H21           2.553100   -1.520700    1.229800 H        1 SUBUNIT    0.0266
     22 H22           2.097400    0.189700    1.078600 H        1 SUBUNIT    0.0266
     23 H23           0.684300   -1.519600   -0.664400 H        1 SUBUNIT    0.0266
     24 H24           0.384100   -2.284800    0.798900 H        1 SUBUNIT    0.0266
@<TRIPOS>BOND
     1    1    2 1
     2    1    8 1
     3    1    9 1
     4    1   10 1
     5    2    3 1
     6    2   11 1
     7    2   12 1
     8    3    4 1
     9    3   13 1
    10    3   14 1
    11    4    5 1
    12    4   15 1
    13    4   16 1
    14    5    6 1
    15    5   17 1
    16    5   18 1
    17    6    7 1
    18    6   19 1
    19    6   20 1
    20    7    8 1
    21    7   21 1
    22    7   22 1
    23    8   23 1
    24    8   24 1
@<SCITEGIC>ATOM_PROPERTY
Formal Charge
SciTegic.value.StringValue
1 0
2 0
3 0
4 0
5 0
6 0
7 0
8 0
9 0
10 0
11 0
12 0
13 0
14 0
15 0
16 0
17 0
18 0
19 0
20 0
21 0
22 0
23 0
24 0

@<SCITEGIC>ATOM_PROPERTY
pdb_tempFactor
SciTegic.value.DoubleValue
1 0.00
2 0.00
3 0.00
4 0.00
5 0.00
6 0.00
7 0.00
8 0.00
9 0.00
10 0.00
11 0.00
12 0.00
13 0.00
14 0.00
15 0.00
16 0.00
17 0.00
18 0.00
19 0.00
20 0.00
21 0.00
22 0.00
23 0.00
24 0.00

@<SCITEGIC>ATOM_PROPERTY
pdb_occupancy
SciTegic.value.DoubleValue
1 1.00
2 1.00
3 1.00
4 1.00
5 1.00
6 1.00
7 1.00
8 1.00
9 1.00
10 1.00
11 1.00
12 1.00
13 1.00
14 1.00
15 1.00
16 1.00
17 1.00
18 1.00
19 1.00
20 1.00
21 1.00
22 1.00
23 1.00
24 1.00

#	copyright 2023 drugdesign.org
#	Creation time:	2024-01-11T10:58:47Z

@<TRIPOS>MOLECULE
cyclooctane.sd
   24    24     0 0 0
SMALL
USER_CHARGES


@<TRIPOS>ATOM
      1 C1           -0.466800   -0.192600    0.554400 C.3      1 SUBUNIT   -0.0532
      2 C2           -0.250800    1.184600   -0.109200 C.3      1 SUBUNIT   -0.0532
      3 C3            1.105200    1.864800    0.044900 C.3      1 SUBUNIT   -0.0532
      4 C4            2.066900    2.010900   -1.129500 C.3      1 SUBUNIT   -0.0532
      5 C5            2.670600    0.642200   -1.487200 C.3      1 SUBUNIT   -0.0532
      6 C6            2.995000   -0.196700   -0.255500 C.3      1 SUBUNIT   -0.0532
      7 C7            1.972200   -1.123200    0.565200 C.3      1 SUBUNIT   -0.0532
      8 C8            0.536300   -1.247500   -0.016700 C.3      1 SUBUNIT   -0.0532
      9 H9           -0.319900   -0.081400    1.654000 H        1 SUBUNIT    0.0266
     10 H10          -1.542800   -0.494200    0.526800 H        1 SUBUNIT    0.0266
     11 H11          -0.525200    1.083400   -1.185100 H        1 SUBUNIT    0.0266
     12 H12          -1.032000    1.820800    0.375000 H        1 SUBUNIT    0.0266
     13 H13           0.720000    2.873900    0.332500 H        1 SUBUNIT    0.0266
     14 H14           1.692300    1.485100    0.912800 H        1 SUBUNIT    0.0266
     15 H15           1.537200    2.453400   -2.007700 H        1 SUBUNIT    0.0266
     16 H16           2.834500    2.743900   -0.781500 H        1 SUBUNIT    0.0266
     17 H17           2.135600   -0.109300   -2.109500 H        1 SUBUNIT    0.0266
     18 H18           3.552900    0.789000   -2.156200 H        1 SUBUNIT    0.0266
     19 H19           3.628000   -1.033800   -0.637900 H        1 SUBUNIT    0.0266
     20 H20           3.741200    0.360200    0.353900 H        1 SUBUNIT    0.0266
     21 H21           2.440800   -2.131500    0.671300 H        1 SUBUNIT    0.0266
     22 H22           2.002800   -0.675100    1.588000 H        1 SUBUNIT    0.0266
     23 H23           0.458600   -1.305100   -1.127000 H        1 SUBUNIT    0.0266
     24 H24           0.131900   -2.223100    0.349200 H        1 SUBUNIT    0.0266
@<TRIPOS>BOND
     1    1    2 1
     2    1    8 1
     3    1    9 1
     4    1   10 1
     5    2    3 1
     6    2   11 1
     7    2   12 1
     8    3    4 1
     9    3   13 1
    10    3   14 1
    11    4    5 1
    12    4   15 1
    13    4   16 1
    14    5    6 1
    15    5   17 1
    16    5   18 1
    17    6    7 1
    18    6   19 1
    19    6   20 1
    20    7    8 1
    21    7   21 1
    22    7   22 1
    23    8   23 1
    24    8   24 1
@<SCITEGIC>ATOM_PROPERTY
Formal Charge
SciTegic.value.StringValue
1 0
2 0
3 0
4 0
5 0
6 0
7 0
8 0
9 0
10 0
11 0
12 0
13 0
14 0
15 0
16 0
17 0
18 0
19 0
20 0
21 0
22 0
23 0
24 0

@<SCITEGIC>ATOM_PROPERTY
pdb_tempFactor
SciTegic.value.DoubleValue
1 0.00
2 0.00
3 0.00
4 0.00
5 0.00
6 0.00
7 0.00
8 0.00
9 0.00
10 0.00
11 0.00
12 0.00
13 0.00
14 0.00
15 0.00
16 0.00
17 0.00
18 0.00
19 0.00
20 0.00
21 0.00
22 0.00
23 0.00
24 0.00

@<SCITEGIC>ATOM_PROPERTY
pdb_occupancy
SciTegic.value.DoubleValue
1 1.00
2 1.00
3 1.00
4 1.00
5 1.00
6 1.00
7 1.00
8 1.00
9 1.00
10 1.00
11 1.00
12 1.00
13 1.00
14 1.00
15 1.00
16 1.00
17 1.00
18 1.00
19 1.00
20 1.00
21 1.00
22 1.00
23 1.00
24 1.00

#	copyright 2023 drugdesign.org
#	Creation time:	2024-01-11T10:58:47Z

@<TRIPOS>MOLECULE
cyclooctane.sd
   24    24     0 0 0
SMALL
USER_CHARGES


@<TRIPOS>ATOM
      1 C1           -0.442200   -0.264400    0.498700 C.3      1 SUBUNIT   -0.0532
      2 C2           -0.208000    1.076600   -0.247200 C.3      1 SUBUNIT   -0.0532
      3 C3            1.049400    1.968300    0.118600 C.3      1 SUBUNIT   -0.0532
      4 C4            2.169500    2.010600   -0.857600 C.3      1 SUBUNIT   -0.0532
      5 C5            2.589900    0.674500   -1.546100 C.3      1 SUBUNIT   -0.0532
      6 C6            2.929900   -0.470700   -0.569900 C.3      1 SUBUNIT   -0.0532
      7 C7            1.958900   -0.868600    0.579200 C.3      1 SUBUNIT   -0.0532
      8 C8            0.574900   -1.371200    0.188200 C.3      1 SUBUNIT   -0.0532
      9 H9           -0.525700    0.002800    1.577800 H        1 SUBUNIT    0.0266
     10 H10          -1.406700   -0.725300    0.171800 H        1 SUBUNIT    0.0266
     11 H11          -0.144900    0.891900   -1.344900 H        1 SUBUNIT    0.0266
     12 H12          -1.069600    1.760400   -0.048100 H        1 SUBUNIT    0.0266
     13 H13           0.859100    3.041100    0.368200 H        1 SUBUNIT    0.0266
     14 H14           1.534400    1.684900    1.081300 H        1 SUBUNIT    0.0266
     15 H15           1.761000    2.718400   -1.619200 H        1 SUBUNIT    0.0266
     16 H16           3.043300    2.616000   -0.514600 H        1 SUBUNIT    0.0266
     17 H17           1.740700    0.336300   -2.180700 H        1 SUBUNIT    0.0266
     18 H18           3.433300    0.960100   -2.220500 H        1 SUBUNIT    0.0266
     19 H19           3.177700   -1.358000   -1.201500 H        1 SUBUNIT    0.0266
     20 H20           3.846500   -0.092600   -0.064700 H        1 SUBUNIT    0.0266
     21 H21           2.367400   -1.754700    1.123000 H        1 SUBUNIT    0.0266
     22 H22           1.886100   -0.264800    1.516200 H        1 SUBUNIT    0.0266
     23 H23           0.517800   -1.834200   -0.824000 H        1 SUBUNIT    0.0266
     24 H24           0.443500   -2.186500    0.941500 H        1 SUBUNIT    0.0266
@<TRIPOS>BOND
     1    1    2 1
     2    1    8 1
     3    1    9 1
     4    1   10 1
     5    2    3 1
     6    2   11 1
     7    2   12 1
     8    3    4 1
     9    3   13 1
    10    3   14 1
    11    4    5 1
    12    4   15 1
    13    4   16 1
    14    5    6 1
    15    5   17 1
    16    5   18 1
    17    6    7 1
    18    6   19 1
    19    6   20 1
    20    7    8 1
    21    7   21 1
    22    7   22 1
    23    8   23 1
    24    8   24 1
@<SCITEGIC>ATOM_PROPERTY
Formal Charge
SciTegic.value.StringValue
1 0
2 0
3 0
4 0
5 0
6 0
7 0
8 0
9 0
10 0
11 0
12 0
13 0
14 0
15 0
16 0
17 0
18 0
19 0
20 0
21 0
22 0
23 0
24 0

@<SCITEGIC>ATOM_PROPERTY
pdb_tempFactor
SciTegic.value.DoubleValue
1 0.00
2 0.00
3 0.00
4 0.00
5 0.00
6 0.00
7 0.00
8 0.00
9 0.00
10 0.00
11 0.00
12 0.00
13 0.00
14 0.00
15 0.00
16 0.00
17 0.00
18 0.00
19 0.00
20 0.00
21 0.00
22 0.00
23 0.00
24 0.00

@<SCITEGIC>ATOM_PROPERTY
pdb_occupancy
SciTegic.value.DoubleValue
1 1.00
2 1.00
3 1.00
4 1.00
5 1.00
6 1.00
7 1.00
8 1.00
9 1.00
10 1.00
11 1.00
12 1.00
13 1.00
14 1.00
15 1.00
16 1.00
17 1.00
18 1.00
19 1.00
20 1.00
21 1.00
22 1.00
23 1.00
24 1.00

#	copyright 2023 drugdesign.org
#	Creation time:	2024-01-11T10:58:47Z

@<TRIPOS>MOLECULE
cyclooctane.sd
   24    24     0 0 0
SMALL
USER_CHARGES


@<TRIPOS>ATOM
      1 C1           -0.325700   -0.177800    0.648200 C.3      1 SUBUNIT   -0.0532
      2 C2           -0.236800    1.062600   -0.247800 C.3      1 SUBUNIT   -0.0532
      3 C3            0.899700    2.114200   -0.105000 C.3      1 SUBUNIT   -0.0532
      4 C4            2.282500    2.024100   -0.706000 C.3      1 SUBUNIT   -0.0532
      5 C5            2.544700    0.657900   -1.415400 C.3      1 SUBUNIT   -0.0532
      6 C6            2.949500   -0.557600   -0.597200 C.3      1 SUBUNIT   -0.0532
      7 C7            2.085200   -1.013800    0.601700 C.3      1 SUBUNIT   -0.0532
      8 C8            0.596500   -1.275400    0.172900 C.3      1 SUBUNIT   -0.0532
      9 H9           -0.133700    0.070500    1.718000 H        1 SUBUNIT    0.0266
     10 H10          -1.304200   -0.717700    0.668100 H        1 SUBUNIT    0.0266
     11 H11          -0.546400    0.847300   -1.297000 H        1 SUBUNIT    0.0266
     12 H12          -1.183200    1.554200    0.087400 H        1 SUBUNIT    0.0266
     13 H13           0.463300    3.012800   -0.606300 H        1 SUBUNIT    0.0266
     14 H14           1.071600    2.283600    0.983100 H        1 SUBUNIT    0.0266
     15 H15           2.422800    2.824600   -1.472400 H        1 SUBUNIT    0.0266
     16 H16           2.976900    2.111900    0.164600 H        1 SUBUNIT    0.0266
     17 H17           1.625700    0.332700   -1.952100 H        1 SUBUNIT    0.0266
     18 H18           3.347700    0.844900   -2.168900 H        1 SUBUNIT    0.0266
     19 H19           3.078000   -1.452800   -1.252900 H        1 SUBUNIT    0.0266
     20 H20           3.985100   -0.444300   -0.205900 H        1 SUBUNIT    0.0266
     21 H21           2.705900   -1.887300    0.916600 H        1 SUBUNIT    0.0266
     22 H22           2.135700   -0.144800    1.301700 H        1 SUBUNIT    0.0266
     23 H23           0.424200   -1.308200   -0.927800 H        1 SUBUNIT    0.0266
     24 H24           0.173100   -2.232400    0.565600 H        1 SUBUNIT    0.0266
@<TRIPOS>BOND
     1    1    2 1
     2    1    8 1
     3    1    9 1
     4    1   10 1
     5    2    3 1
     6    2   11 1
     7    2   12 1
     8    3    4 1
     9    3   13 1
    10    3   14 1
    11    4    5 1
    12    4   15 1
    13    4   16 1
    14    5    6 1
    15    5   17 1
    16    5   18 1
    17    6    7 1
    18    6   19 1
    19    6   20 1
    20    7    8 1
    21    7   21 1
    22    7   22 1
    23    8   23 1
    24    8   24 1
@<SCITEGIC>ATOM_PROPERTY
Formal Charge
SciTegic.value.StringValue
1 0
2 0
3 0
4 0
5 0
6 0
7 0
8 0
9 0
10 0
11 0
12 0
13 0
14 0
15 0
16 0
17 0
18 0
19 0
20 0
21 0
22 0
23 0
24 0

@<SCITEGIC>ATOM_PROPERTY
pdb_tempFactor
SciTegic.value.DoubleValue
1 0.00
2 0.00
3 0.00
4 0.00
5 0.00
6 0.00
7 0.00
8 0.00
9 0.00
10 0.00
11 0.00
12 0.00
13 0.00
14 0.00
15 0.00
16 0.00
17 0.00
18 0.00
19 0.00
20 0.00
21 0.00
22 0.00
23 0.00
24 0.00

@<SCITEGIC>ATOM_PROPERTY
pdb_occupancy
SciTegic.value.DoubleValue
1 1.00
2 1.00
3 1.00
4 1.00
5 1.00
6 1.00
7 1.00
8 1.00
9 1.00
10 1.00
11 1.00
12 1.00
13 1.00
14 1.00
15 1.00
16 1.00
17 1.00
18 1.00
19 1.00
20 1.00
21 1.00
22 1.00
23 1.00
24 1.00

#	copyright 2023 drugdesign.org
#	Creation time:	2024-01-11T10:58:47Z

@<TRIPOS>MOLECULE
cyclooctane.sd
   24    24     0 0 0
SMALL
USER_CHARGES


@<TRIPOS>ATOM
      1 C1           -0.417900   -0.244900    0.365900 C.3      1 SUBUNIT   -0.0532
      2 C2           -0.260400    1.213700   -0.146900 C.3      1 SUBUNIT   -0.0532
      3 C3            1.003300    2.132100    0.240900 C.3      1 SUBUNIT   -0.0532
      4 C4            2.089300    1.910300   -0.899900 C.3      1 SUBUNIT   -0.0532
      5 C5            2.438100    0.532300   -1.473700 C.3      1 SUBUNIT   -0.0532
      6 C6            3.057400   -0.432500   -0.426300 C.3      1 SUBUNIT   -0.0532
      7 C7            2.106900   -0.969000    0.624300 C.3      1 SUBUNIT   -0.0532
      8 C8            0.644500   -1.371700    0.149700 C.3      1 SUBUNIT   -0.0532
      9 H9           -0.541000   -0.269700    1.473700 H        1 SUBUNIT    0.0266
     10 H10          -1.381200   -0.602000   -0.074600 H        1 SUBUNIT    0.0266
     11 H11          -0.307400    1.278500   -1.259000 H        1 SUBUNIT    0.0266
     12 H12          -1.174100    1.787500    0.145400 H        1 SUBUNIT    0.0266
     13 H13           0.748100    3.218400    0.176600 H        1 SUBUNIT    0.0266
     14 H14           1.452500    1.949200    1.244300 H        1 SUBUNIT    0.0266
     15 H15           1.898000    2.684600   -1.682000 H        1 SUBUNIT    0.0266
     16 H16           3.053500    2.356600   -0.555100 H        1 SUBUNIT    0.0266
     17 H17           1.561200    0.075800   -1.984600 H        1 SUBUNIT    0.0266
     18 H18           3.138400    0.639600   -2.337300 H        1 SUBUNIT    0.0266
     19 H19           3.401000   -1.293400   -1.049500 H        1 SUBUNIT    0.0266
     20 H20           3.895400    0.180400   -0.025800 H        1 SUBUNIT    0.0266
     21 H21           2.520000   -1.921100    1.037300 H        1 SUBUNIT    0.0266
     22 H22           2.036400   -0.354200    1.554300 H        1 SUBUNIT    0.0266
     23 H23           0.617400   -1.615200   -0.937600 H        1 SUBUNIT    0.0266
     24 H24           0.496100   -2.338600    0.690400 H        1 SUBUNIT    0.0266
@<TRIPOS>BOND
     1    1    2 1
     2    1    8 1
     3    1    9 1
     4    1   10 1
     5    2    3 1
     6    2   11 1
     7    2   12 1
     8    3    4 1
     9    3   13 1
    10    3   14 1
    11    4    5 1
    12    4   15 1
    13    4   16 1
    14    5    6 1
    15    5   17 1
    16    5   18 1
    17    6    7 1
    18    6   19 1
    19    6   20 1
    20    7    8 1
    21    7   21 1
    22    7   22 1
    23    8   23 1
    24    8   24 1
@<SCITEGIC>ATOM_PROPERTY
Formal Charge
SciTegic.value.StringValue
1 0
2 0
3 0
4 0
5 0
6 0
7 0
8 0
9 0
10 0
11 0
12 0
13 0
14 0
15 0
16 0
17 0
18 0
19 0
20 0
21 0
22 0
23 0
24 0

@<SCITEGIC>ATOM_PROPERTY
pdb_tempFactor
SciTegic.value.DoubleValue
1 0.00
2 0.00
3 0.00
4 0.00
5 0.00
6 0.00
7 0.00
8 0.00
9 0.00
10 0.00
11 0.00
12 0.00
13 0.00
14 0.00
15 0.00
16 0.00
17 0.00
18 0.00
19 0.00
20 0.00
21 0.00
22 0.00
23 0.00
24 0.00

@<SCITEGIC>ATOM_PROPERTY
pdb_occupancy
SciTegic.value.DoubleValue
1 1.00
2 1.00
3 1.00
4 1.00
5 1.00
6 1.00
7 1.00
8 1.00
9 1.00
10 1.00
11 1.00
12 1.00
13 1.00
14 1.00
15 1.00
16 1.00
17 1.00
18 1.00
19 1.00
20 1.00
21 1.00
22 1.00
23 1.00
24 1.00

#	copyright 2023 drugdesign.org
#	Creation time:	2024-01-11T10:58:47Z

@<TRIPOS>MOLECULE
cyclooctane.sd
   24    24     0 0 0
SMALL
USER_CHARGES


@<TRIPOS>ATOM
      1 C1           -0.282900   -0.138100    0.503700 C.3      1 SUBUNIT   -0.0532
      2 C2           -0.219400    1.261100   -0.197000 C.3      1 SUBUNIT   -0.0532
      3 C3            1.060400    2.006600    0.140900 C.3      1 SUBUNIT   -0.0532
      4 C4            2.086300    1.993000   -1.001000 C.3      1 SUBUNIT   -0.0532
      5 C5            2.375800    0.546100   -1.497700 C.3      1 SUBUNIT   -0.0532
      6 C6            2.956900   -0.276100   -0.346700 C.3      1 SUBUNIT   -0.0532
      7 C7            2.106000   -1.224900    0.556500 C.3      1 SUBUNIT   -0.0532
      8 C8            0.690400   -1.268300    0.011100 C.3      1 SUBUNIT   -0.0532
      9 H9           -0.320400   -0.021000    1.611800 H        1 SUBUNIT    0.0266
     10 H10          -1.334500   -0.456600    0.298100 H        1 SUBUNIT    0.0266
     11 H11          -0.353900    1.092600   -1.290800 H        1 SUBUNIT    0.0266
     12 H12          -1.116600    1.876500    0.059700 H        1 SUBUNIT    0.0266
     13 H13           0.725100    3.043100    0.391100 H        1 SUBUNIT    0.0266
     14 H14           1.481300    1.749400    1.140400 H        1 SUBUNIT    0.0266
     15 H15           1.597400    2.463200   -1.888500 H        1 SUBUNIT    0.0266
     16 H16           3.016300    2.531800   -0.697100 H        1 SUBUNIT    0.0266
     17 H17           1.570400    0.163900   -2.163600 H        1 SUBUNIT    0.0266
     18 H18           3.185900    0.565300   -2.266500 H        1 SUBUNIT    0.0266
     19 H19           3.833900   -0.914300   -0.613500 H        1 SUBUNIT    0.0266
     20 H20           3.504100    0.235300    0.476400 H        1 SUBUNIT    0.0266
     21 H21           2.541800   -2.249900    0.640600 H        1 SUBUNIT    0.0266
     22 H22           1.931500   -0.812600    1.579900 H        1 SUBUNIT    0.0266
     23 H23           0.748500   -1.509000   -1.075600 H        1 SUBUNIT    0.0266
     24 H24           0.259700   -2.146500    0.552000 H        1 SUBUNIT    0.0266
@<TRIPOS>BOND
     1    1    2 1
     2    1    8 1
     3    1    9 1
     4    1   10 1
     5    2    3 1
     6    2   11 1
     7    2   12 1
     8    3    4 1
     9    3   13 1
    10    3   14 1
    11    4    5 1
    12    4   15 1
    13    4   16 1
    14    5    6 1
    15    5   17 1
    16    5   18 1
    17    6    7 1
    18    6   19 1
    19    6   20 1
    20    7    8 1
    21    7   21 1
    22    7   22 1
    23    8   23 1
    24    8   24 1
@<SCITEGIC>ATOM_PROPERTY
Formal Charge
SciTegic.value.StringValue
1 0
2 0
3 0
4 0
5 0
6 0
7 0
8 0
9 0
10 0
11 0
12 0
13 0
14 0
15 0
16 0
17 0
18 0
19 0
20 0
21 0
22 0
23 0
24 0

@<SCITEGIC>ATOM_PROPERTY
pdb_tempFactor
SciTegic.value.DoubleValue
1 0.00
2 0.00
3 0.00
4 0.00
5 0.00
6 0.00
7 0.00
8 0.00
9 0.00
10 0.00
11 0.00
12 0.00
13 0.00
14 0.00
15 0.00
16 0.00
17 0.00
18 0.00
19 0.00
20 0.00
21 0.00
22 0.00
23 0.00
24 0.00

@<SCITEGIC>ATOM_PROPERTY
pdb_occupancy
SciTegic.value.DoubleValue
1 1.00
2 1.00
3 1.00
4 1.00
5 1.00
6 1.00
7 1.00
8 1.00
9 1.00
10 1.00
11 1.00
12 1.00
13 1.00
14 1.00
15 1.00
16 1.00
17 1.00
18 1.00
19 1.00
20 1.00
21 1.00
22 1.00
23 1.00
24 1.00

#	copyright 2023 drugdesign.org
#	Creation time:	2024-01-11T10:58:47Z

@<TRIPOS>MOLECULE
cyclooctane.sd
   24    24     0 0 0
SMALL
USER_CHARGES


@<TRIPOS>ATOM
      1 C1           -0.406100   -0.160500    0.495600 C.3      1 SUBUNIT   -0.0532
      2 C2           -0.273500    1.115200   -0.305500 C.3      1 SUBUNIT   -0.0532
      3 C3            0.853800    2.120500    0.022100 C.3      1 SUBUNIT   -0.0532
      4 C4            2.229500    1.834100   -0.692500 C.3      1 SUBUNIT   -0.0532
      5 C5            2.456800    0.543500   -1.397400 C.3      1 SUBUNIT   -0.0532
      6 C6            3.098500   -0.614700   -0.594100 C.3      1 SUBUNIT   -0.0532
      7 C7            2.113100   -0.917200    0.555900 C.3      1 SUBUNIT   -0.0532
      8 C8            0.635800   -1.263000    0.217100 C.3      1 SUBUNIT   -0.0532
      9 H9           -0.275100   -0.015700    1.593300 H        1 SUBUNIT    0.0266
     10 H10          -1.395500   -0.637300    0.287300 H        1 SUBUNIT    0.0266
     11 H11          -0.304200    1.007500   -1.414800 H        1 SUBUNIT    0.0266
     12 H12          -1.202400    1.612700    0.067600 H        1 SUBUNIT    0.0266
     13 H13           0.596800    3.207700    0.058800 H        1 SUBUNIT    0.0266
     14 H14           0.942900    1.906800    1.112300 H        1 SUBUNIT    0.0266
     15 H15           2.334300    2.626500   -1.472900 H        1 SUBUNIT    0.0266
     16 H16           3.093800    2.231700   -0.107100 H        1 SUBUNIT    0.0266
     17 H17           1.504900    0.269800   -1.904800 H        1 SUBUNIT    0.0266
     18 H18           3.180300    0.727200   -2.228400 H        1 SUBUNIT    0.0266
     19 H19           3.182100   -1.362800   -1.419400 H        1 SUBUNIT    0.0266
     20 H20           4.097500   -0.234200   -0.285000 H        1 SUBUNIT    0.0266
     21 H21           2.594400   -1.663400    1.233600 H        1 SUBUNIT    0.0266
     22 H22           2.179700   -0.018700    1.216300 H        1 SUBUNIT    0.0266
     23 H23           0.604900   -1.559700   -0.856700 H        1 SUBUNIT    0.0266
     24 H24           0.220200   -2.178100    0.706100 H        1 SUBUNIT    0.0266
@<TRIPOS>BOND
     1    1    2 1
     2    1    8 1
     3    1    9 1
     4    1   10 1
     5    2    3 1
     6    2   11 1
     7    2   12 1
     8    3    4 1
     9    3   13 1
    10    3   14 1
    11    4    5 1
    12    4   15 1
    13    4   16 1
    14    5    6 1
    15    5   17 1
    16    5   18 1
    17    6    7 1
    18    6   19 1
    19    6   20 1
    20    7    8 1
    21    7   21 1
    22    7   22 1
    23    8   23 1
    24    8   24 1
@<SCITEGIC>ATOM_PROPERTY
Formal Charge
SciTegic.value.StringValue
1 0
2 0
3 0
4 0
5 0
6 0
7 0
8 0
9 0
10 0
11 0
12 0
13 0
14 0
15 0
16 0
17 0
18 0
19 0
20 0
21 0
22 0
23 0
24 0

@<SCITEGIC>ATOM_PROPERTY
pdb_tempFactor
SciTegic.value.DoubleValue
1 0.00
2 0.00
3 0.00
4 0.00
5 0.00
6 0.00
7 0.00
8 0.00
9 0.00
10 0.00
11 0.00
12 0.00
13 0.00
14 0.00
15 0.00
16 0.00
17 0.00
18 0.00
19 0.00
20 0.00
21 0.00
22 0.00
23 0.00
24 0.00

@<SCITEGIC>ATOM_PROPERTY
pdb_occupancy
SciTegic.value.DoubleValue
1 1.00
2 1.00
3 1.00
4 1.00
5 1.00
6 1.00
7 1.00
8 1.00
9 1.00
10 1.00
11 1.00
12 1.00
13 1.00
14 1.00
15 1.00
16 1.00
17 1.00
18 1.00
19 1.00
20 1.00
21 1.00
22 1.00
23 1.00
24 1.00

#	copyright 2023 drugdesign.org
#	Creation time:	2024-01-11T10:58:47Z

@<TRIPOS>MOLECULE
cyclooctane.sd
   24    24     0 0 0
SMALL
USER_CHARGES


@<TRIPOS>ATOM
      1 C1           -0.389300   -0.236000    0.594200 C.3      1 SUBUNIT   -0.0532
      2 C2           -0.363000    1.182400   -0.211100 C.3      1 SUBUNIT   -0.0532
      3 C3            0.828500    1.997200    0.027800 C.3      1 SUBUNIT   -0.0532
      4 C4            2.270000    1.902300   -0.649000 C.3      1 SUBUNIT   -0.0532
      5 C5            2.528500    0.660600   -1.511600 C.3      1 SUBUNIT   -0.0532
      6 C6            2.963200   -0.591800   -0.687600 C.3      1 SUBUNIT   -0.0532
      7 C7            2.150200   -0.882000    0.594100 C.3      1 SUBUNIT   -0.0532
      8 C8            0.727200   -1.258200    0.204000 C.3      1 SUBUNIT   -0.0532
      9 H9           -0.285600    0.128300    1.642800 H        1 SUBUNIT    0.0266
     10 H10          -1.445900   -0.560900    0.428300 H        1 SUBUNIT    0.0266
     11 H11          -0.481600    0.956500   -1.296400 H        1 SUBUNIT    0.0266
     12 H12          -1.271400    1.757500    0.094700 H        1 SUBUNIT    0.0266
     13 H13           0.493400    2.958600   -0.433400 H        1 SUBUNIT    0.0266
     14 H14           0.923100    2.111300    1.132400 H        1 SUBUNIT    0.0266
     15 H15           2.470600    2.700200   -1.404700 H        1 SUBUNIT    0.0266
     16 H16           3.086600    1.844800    0.110900 H        1 SUBUNIT    0.0266
     17 H17           1.582100    0.405900   -2.038600 H        1 SUBUNIT    0.0266
     18 H18           3.412500    0.907500   -2.148200 H        1 SUBUNIT    0.0266
     19 H19           2.860000   -1.506900   -1.319800 H        1 SUBUNIT    0.0266
     20 H20           4.056000   -0.539300   -0.484100 H        1 SUBUNIT    0.0266
     21 H21           2.655600   -1.740200    1.099900 H        1 SUBUNIT    0.0266
     22 H22           2.263700    0.018800    1.244800 H        1 SUBUNIT    0.0266
     23 H23           0.598800   -1.490500   -0.878400 H        1 SUBUNIT    0.0266
     24 H24           0.426800   -2.180400    0.759600 H        1 SUBUNIT    0.0266
@<TRIPOS>BOND
     1    1    2 1
     2    1    8 1
     3    1    9 1
     4    1   10 1
     5    2    3 1
     6    2   11 1
     7    2   12 1
     8    3    4 1
     9    3   13 1
    10    3   14 1
    11    4    5 1
    12    4   15 1
    13    4   16 1
    14    5    6 1
    15    5   17 1
    16    5   18 1
    17    6    7 1
    18    6   19 1
    19    6   20 1
    20    7    8 1
    21    7   21 1
    22    7   22 1
    23    8   23 1
    24    8   24 1
@<SCITEGIC>ATOM_PROPERTY
Formal Charge
SciTegic.value.StringValue
1 0
2 0
3 0
4 0
5 0
6 0
7 0
8 0
9 0
10 0
11 0
12 0
13 0
14 0
15 0
16 0
17 0
18 0
19 0
20 0
21 0
22 0
23 0
24 0

@<SCITEGIC>ATOM_PROPERTY
pdb_tempFactor
SciTegic.value.DoubleValue
1 0.00
2 0.00
3 0.00
4 0.00
5 0.00
6 0.00
7 0.00
8 0.00
9 0.00
10 0.00
11 0.00
12 0.00
13 0.00
14 0.00
15 0.00
16 0.00
17 0.00
18 0.00
19 0.00
20 0.00
21 0.00
22 0.00
23 0.00
24 0.00

@<SCITEGIC>ATOM_PROPERTY
pdb_occupancy
SciTegic.value.DoubleValue
1 1.00
2 1.00
3 1.00
4 1.00
5 1.00
6 1.00
7 1.00
8 1.00
9 1.00
10 1.00
11 1.00
12 1.00
13 1.00
14 1.00
15 1.00
16 1.00
17 1.00
18 1.00
19 1.00
20 1.00
21 1.00
22 1.00
23 1.00
24 1.00

#	copyright 2023 drugdesign.org
#	Creation time:	2024-01-11T10:58:47Z

@<TRIPOS>MOLECULE
cyclooctane.sd
   24    24     0 0 0
SMALL
USER_CHARGES


@<TRIPOS>ATOM
      1 C1           -0.364100   -0.172200    0.587200 C.3      1 SUBUNIT   -0.0532
      2 C2           -0.273000    1.194900   -0.122800 C.3      1 SUBUNIT   -0.0532
      3 C3            1.060100    2.031500    0.116600 C.3      1 SUBUNIT   -0.0532
      4 C4            2.079000    1.873500   -1.005000 C.3      1 SUBUNIT   -0.0532
      5 C5            2.623500    0.554200   -1.558500 C.3      1 SUBUNIT   -0.0532
      6 C6            3.045600   -0.303300   -0.306500 C.3      1 SUBUNIT   -0.0532
      7 C7            1.946200   -1.014400    0.523200 C.3      1 SUBUNIT   -0.0532
      8 C8            0.542300   -1.309800   -0.017900 C.3      1 SUBUNIT   -0.0532
      9 H9           -0.162200   -0.095700    1.681000 H        1 SUBUNIT    0.0266
     10 H10          -1.428400   -0.511700    0.547700 H        1 SUBUNIT    0.0266
     11 H11          -0.341000    1.026300   -1.222800 H        1 SUBUNIT    0.0266
     12 H12          -1.083900    1.844100    0.290200 H        1 SUBUNIT    0.0266
     13 H13           0.799300    3.117400    0.163200 H        1 SUBUNIT    0.0266
     14 H14           1.356700    1.677200    1.130800 H        1 SUBUNIT    0.0266
     15 H15           1.480900    2.326000   -1.832900 H        1 SUBUNIT    0.0266
     16 H16           2.959200    2.547400   -0.868400 H        1 SUBUNIT    0.0266
     17 H17           1.887700    0.062900   -2.233400 H        1 SUBUNIT    0.0266
     18 H18           3.593300    0.751000   -2.076700 H        1 SUBUNIT    0.0266
     19 H19           3.844400   -1.009100   -0.640600 H        1 SUBUNIT    0.0266
     20 H20           3.494900    0.449000    0.379400 H        1 SUBUNIT    0.0266
     21 H21           2.330200   -2.061800    0.579100 H        1 SUBUNIT    0.0266
     22 H22           1.970300   -0.737700    1.605100 H        1 SUBUNIT    0.0266
     23 H23           0.547800   -1.410000   -1.128000 H        1 SUBUNIT    0.0266
     24 H24           0.166600   -2.306400    0.321000 H        1 SUBUNIT    0.0266
@<TRIPOS>BOND
     1    1    2 1
     2    1    8 1
     3    1    9 1
     4    1   10 1
     5    2    3 1
     6    2   11 1
     7    2   12 1
     8    3    4 1
     9    3   13 1
    10    3   14 1
    11    4    5 1
    12    4   15 1
    13    4   16 1
    14    5    6 1
    15    5   17 1
    16    5   18 1
    17    6    7 1
    18    6   19 1
    19    6   20 1
    20    7    8 1
    21    7   21 1
    22    7   22 1
    23    8   23 1
    24    8   24 1
@<SCITEGIC>ATOM_PROPERTY
Formal Charge
SciTegic.value.StringValue
1 0
2 0
3 0
4 0
5 0
6 0
7 0
8 0
9 0
10 0
11 0
12 0
13 0
14 0
15 0
16 0
17 0
18 0
19 0
20 0
21 0
22 0
23 0
24 0

@<SCITEGIC>ATOM_PROPERTY
pdb_tempFactor
SciTegic.value.DoubleValue
1 0.00
2 0.00
3 0.00
4 0.00
5 0.00
6 0.00
7 0.00
8 0.00
9 0.00
10 0.00
11 0.00
12 0.00
13 0.00
14 0.00
15 0.00
16 0.00
17 0.00
18 0.00
19 0.00
20 0.00
21 0.00
22 0.00
23 0.00
24 0.00

@<SCITEGIC>ATOM_PROPERTY
pdb_occupancy
SciTegic.value.DoubleValue
1 1.00
2 1.00
3 1.00
4 1.00
5 1.00
6 1.00
7 1.00
8 1.00
9 1.00
10 1.00
11 1.00
12 1.00
13 1.00
14 1.00
15 1.00
16 1.00
17 1.00
18 1.00
19 1.00
20 1.00
21 1.00
22 1.00
23 1.00
24 1.00

#	copyright 2023 drugdesign.org
#	Creation time:	2024-01-11T10:58:47Z

@<TRIPOS>MOLECULE
cyclooctane.sd
   24    24     0 0 0
SMALL
USER_CHARGES


@<TRIPOS>ATOM
      1 C1           -0.359600   -0.177100    0.605700 C.3      1 SUBUNIT   -0.0532
      2 C2           -0.254900    1.095500   -0.210500 C.3      1 SUBUNIT   -0.0532
      3 C3            1.009800    1.997900   -0.008400 C.3      1 SUBUNIT   -0.0532
      4 C4            2.150700    2.045100   -1.063700 C.3      1 SUBUNIT   -0.0532
      5 C5            2.541700    0.620900   -1.380700 C.3      1 SUBUNIT   -0.0532
      6 C6            2.968100   -0.259500   -0.286700 C.3      1 SUBUNIT   -0.0532
      7 C7            2.047500   -1.232500    0.503200 C.3      1 SUBUNIT   -0.0532
      8 C8            0.508700   -1.255500    0.043100 C.3      1 SUBUNIT   -0.0532
      9 H9           -0.199000    0.046300    1.686100 H        1 SUBUNIT    0.0266
     10 H10          -1.429300   -0.485200    0.503600 H        1 SUBUNIT    0.0266
     11 H11          -0.630600    0.866600   -1.234900 H        1 SUBUNIT    0.0266
     12 H12          -1.061900    1.765800    0.175500 H        1 SUBUNIT    0.0266
     13 H13           0.779700    3.057000    0.265200 H        1 SUBUNIT    0.0266
     14 H14           1.524500    1.589200    0.891700 H        1 SUBUNIT    0.0266
     15 H15           1.779100    2.582100   -1.970000 H        1 SUBUNIT    0.0266
     16 H16           2.976200    2.653500   -0.620800 H        1 SUBUNIT    0.0266
     17 H17           1.795000    0.135200   -2.047600 H        1 SUBUNIT    0.0266
     18 H18           3.376100    0.683200   -2.120600 H        1 SUBUNIT    0.0266
     19 H19           3.799400   -0.888900   -0.687300 H        1 SUBUNIT    0.0266
     20 H20           3.679300    0.211700    0.427800 H        1 SUBUNIT    0.0266
     21 H21           2.545600   -2.229700    0.574700 H        1 SUBUNIT    0.0266
     22 H22           2.060800   -0.722400    1.496900 H        1 SUBUNIT    0.0266
     23 H23           0.435900   -1.376000   -1.062500 H        1 SUBUNIT    0.0266
     24 H24           0.046300   -2.194600    0.435100 H        1 SUBUNIT    0.0266
@<TRIPOS>BOND
     1    1    2 1
     2    1    8 1
     3    1    9 1
     4    1   10 1
     5    2    3 1
     6    2   11 1
     7    2   12 1
     8    3    4 1
     9    3   13 1
    10    3   14 1
    11    4    5 1
    12    4   15 1
    13    4   16 1
    14    5    6 1
    15    5   17 1
    16    5   18 1
    17    6    7 1
    18    6   19 1
    19    6   20 1
    20    7    8 1
    21    7   21 1
    22    7   22 1
    23    8   23 1
    24    8   24 1
@<SCITEGIC>ATOM_PROPERTY
Formal Charge
SciTegic.value.StringValue
1 0
2 0
3 0
4 0
5 0
6 0
7 0
8 0
9 0
10 0
11 0
12 0
13 0
14 0
15 0
16 0
17 0
18 0
19 0
20 0
21 0
22 0
23 0
24 0

@<SCITEGIC>ATOM_PROPERTY
pdb_tempFactor
SciTegic.value.DoubleValue
1 0.00
2 0.00
3 0.00
4 0.00
5 0.00
6 0.00
7 0.00
8 0.00
9 0.00
10 0.00
11 0.00
12 0.00
13 0.00
14 0.00
15 0.00
16 0.00
17 0.00
18 0.00
19 0.00
20 0.00
21 0.00
22 0.00
23 0.00
24 0.00

@<SCITEGIC>ATOM_PROPERTY
pdb_occupancy
SciTegic.value.DoubleValue
1 1.00
2 1.00
3 1.00
4 1.00
5 1.00
6 1.00
7 1.00
8 1.00
9 1.00
10 1.00
11 1.00
12 1.00
13 1.00
14 1.00
15 1.00
16 1.00
17 1.00
18 1.00
19 1.00
20 1.00
21 1.00
22 1.00
23 1.00
24 1.00

#	copyright 2023 drugdesign.org
#	Creation time:	2024-01-11T10:58:47Z

@<TRIPOS>MOLECULE
cyclooctane.sd
   24    24     0 0 0
SMALL
USER_CHARGES


@<TRIPOS>ATOM
      1 C1           -0.383400   -0.211400    0.503500 C.3      1 SUBUNIT   -0.0532
      2 C2           -0.158500    1.075900   -0.315100 C.3      1 SUBUNIT   -0.0532
      3 C3            0.961500    2.120200    0.111800 C.3      1 SUBUNIT   -0.0532
      4 C4            2.211400    2.056000   -0.775900 C.3      1 SUBUNIT   -0.0532
      5 C5            2.493800    0.653100   -1.449800 C.3      1 SUBUNIT   -0.0532
      6 C6            2.998700   -0.528200   -0.634700 C.3      1 SUBUNIT   -0.0532
      7 C7            2.111600   -0.904200    0.533700 C.3      1 SUBUNIT   -0.0532
      8 C8            0.680400   -1.343500    0.298700 C.3      1 SUBUNIT   -0.0532
      9 H9           -0.533400   -0.145800    1.606300 H        1 SUBUNIT    0.0266
     10 H10          -1.374400   -0.670800    0.266200 H        1 SUBUNIT    0.0266
     11 H11          -0.183300    0.826200   -1.401300 H        1 SUBUNIT    0.0266
     12 H12          -1.053000    1.745800   -0.290100 H        1 SUBUNIT    0.0266
     13 H13           0.637700    3.186500    0.199000 H        1 SUBUNIT    0.0266
     14 H14           1.288500    1.831500    1.137500 H        1 SUBUNIT    0.0266
     15 H15           2.105400    2.862000   -1.542000 H        1 SUBUNIT    0.0266
     16 H16           3.062600    2.464100   -0.178800 H        1 SUBUNIT    0.0266
     17 H17           1.628000    0.261900   -2.029100 H        1 SUBUNIT    0.0266
     18 H18           3.159300    0.761100   -2.340300 H        1 SUBUNIT    0.0266
     19 H19           2.870500   -1.451100   -1.250900 H        1 SUBUNIT    0.0266
     20 H20           4.012100   -0.335500   -0.217400 H        1 SUBUNIT    0.0266
     21 H21           2.503900   -1.760600    1.134000 H        1 SUBUNIT    0.0266
     22 H22           1.966300   -0.081500    1.275300 H        1 SUBUNIT    0.0266
     23 H23           0.530400   -1.715000   -0.741300 H        1 SUBUNIT    0.0266
     24 H24           0.468400   -2.191100    0.995900 H        1 SUBUNIT    0.0266
@<TRIPOS>BOND
     1    1    2 1
     2    1    8 1
     3    1    9 1
     4    1   10 1
     5    2    3 1
     6    2   11 1
     7    2   12 1
     8    3    4 1
     9    3   13 1
    10    3   14 1
    11    4    5 1
    12    4   15 1
    13    4   16 1
    14    5    6 1
    15    5   17 1
    16    5   18 1
    17    6    7 1
    18    6   19 1
    19    6   20 1
    20    7    8 1
    21    7   21 1
    22    7   22 1
    23    8   23 1
    24    8   24 1
@<SCITEGIC>ATOM_PROPERTY
Formal Charge
SciTegic.value.StringValue
1 0
2 0
3 0
4 0
5 0
6 0
7 0
8 0
9 0
10 0
11 0
12 0
13 0
14 0
15 0
16 0
17 0
18 0
19 0
20 0
21 0
22 0
23 0
24 0

@<SCITEGIC>ATOM_PROPERTY
pdb_tempFactor
SciTegic.value.DoubleValue
1 0.00
2 0.00
3 0.00
4 0.00
5 0.00
6 0.00
7 0.00
8 0.00
9 0.00
10 0.00
11 0.00
12 0.00
13 0.00
14 0.00
15 0.00
16 0.00
17 0.00
18 0.00
19 0.00
20 0.00
21 0.00
22 0.00
23 0.00
24 0.00

@<SCITEGIC>ATOM_PROPERTY
pdb_occupancy
SciTegic.value.DoubleValue
1 1.00
2 1.00
3 1.00
4 1.00
5 1.00
6 1.00
7 1.00
8 1.00
9 1.00
10 1.00
11 1.00
12 1.00
13 1.00
14 1.00
15 1.00
16 1.00
17 1.00
18 1.00
19 1.00
20 1.00
21 1.00
22 1.00
23 1.00
24 1.00

#	copyright 2023 drugdesign.org
#	Creation time:	2024-01-11T10:58:47Z

@<TRIPOS>MOLECULE
cyclooctane.sd
   24    24     0 0 0
SMALL
USER_CHARGES


@<TRIPOS>ATOM
      1 C1           -0.364100   -0.195500    0.464100 C.3      1 SUBUNIT   -0.0532
      2 C2           -0.301300    1.244000   -0.207600 C.3      1 SUBUNIT   -0.0532
      3 C3            0.940300    2.059800    0.194900 C.3      1 SUBUNIT   -0.0532
      4 C4            2.165100    1.977600   -0.834100 C.3      1 SUBUNIT   -0.0532
      5 C5            2.464900    0.555200   -1.513300 C.3      1 SUBUNIT   -0.0532
      6 C6            2.924400   -0.528400   -0.537100 C.3      1 SUBUNIT   -0.0532
      7 C7            2.067700   -0.939600    0.715400 C.3      1 SUBUNIT   -0.0532
      8 C8            0.689500   -1.242300    0.125000 C.3      1 SUBUNIT   -0.0532
      9 H9           -0.387900   -0.148600    1.577700 H        1 SUBUNIT    0.0266
     10 H10          -1.263400   -0.759900    0.114500 H        1 SUBUNIT    0.0266
     11 H11          -0.638000    1.177300   -1.268300 H        1 SUBUNIT    0.0266
     12 H12          -1.228300    1.745400    0.165000 H        1 SUBUNIT    0.0266
     13 H13           0.686100    3.147100    0.145900 H        1 SUBUNIT    0.0266
     14 H14           1.277500    1.978500    1.254000 H        1 SUBUNIT    0.0266
     15 H15           2.084400    2.542600   -1.794400 H        1 SUBUNIT    0.0266
     16 H16           3.086000    2.300400   -0.290500 H        1 SUBUNIT    0.0266
     17 H17           1.648500    0.195700   -2.178600 H        1 SUBUNIT    0.0266
     18 H18           3.309100    0.707800   -2.228600 H        1 SUBUNIT    0.0266
     19 H19           3.112700   -1.469600   -1.108300 H        1 SUBUNIT    0.0266
     20 H20           3.945600   -0.162600   -0.289000 H        1 SUBUNIT    0.0266
     21 H21           2.661400   -1.798000    1.113300 H        1 SUBUNIT    0.0266
     22 H22           1.938600   -0.132300    1.476600 H        1 SUBUNIT    0.0266
     23 H23           0.833400   -1.577100   -0.928300 H        1 SUBUNIT    0.0266
     24 H24           0.444300   -2.175400    0.689500 H        1 SUBUNIT    0.0266
@<TRIPOS>BOND
     1    1    2 1
     2    1    8 1
     3    1    9 1
     4    1   10 1
     5    2    3 1
     6    2   11 1
     7    2   12 1
     8    3    4 1
     9    3   13 1
    10    3   14 1
    11    4    5 1
    12    4   15 1
    13    4   16 1
    14    5    6 1
    15    5   17 1
    16    5   18 1
    17    6    7 1
    18    6   19 1
    19    6   20 1
    20    7    8 1
    21    7   21 1
    22    7   22 1
    23    8   23 1
    24    8   24 1
@<SCITEGIC>ATOM_PROPERTY
Formal Charge
SciTegic.value.StringValue
1 0
2 0
3 0
4 0
5 0
6 0
7 0
8 0
9 0
10 0
11 0
12 0
13 0
14 0
15 0
16 0
17 0
18 0
19 0
20 0
21 0
22 0
23 0
24 0

@<SCITEGIC>ATOM_PROPERTY
pdb_tempFactor
SciTegic.value.DoubleValue
1 0.00
2 0.00
3 0.00
4 0.00
5 0.00
6 0.00
7 0.00
8 0.00
9 0.00
10 0.00
11 0.00
12 0.00
13 0.00
14 0.00
15 0.00
16 0.00
17 0.00
18 0.00
19 0.00
20 0.00
21 0.00
22 0.00
23 0.00
24 0.00

@<SCITEGIC>ATOM_PROPERTY
pdb_occupancy
SciTegic.value.DoubleValue
1 1.00
2 1.00
3 1.00
4 1.00
5 1.00
6 1.00
7 1.00
8 1.00
9 1.00
10 1.00
11 1.00
12 1.00
13 1.00
14 1.00
15 1.00
16 1.00
17 1.00
18 1.00
19 1.00
20 1.00
21 1.00
22 1.00
23 1.00
24 1.00

#	copyright 2023 drugdesign.org
#	Creation time:	2024-01-11T10:58:47Z

@<TRIPOS>MOLECULE
cyclooctane.sd
   24    24     0 0 0
SMALL
USER_CHARGES


@<TRIPOS>ATOM
      1 C1           -0.364500   -0.178600    0.468900 C.3      1 SUBUNIT   -0.0532
      2 C2           -0.285600    1.216100   -0.119900 C.3      1 SUBUNIT   -0.0532
      3 C3            1.007400    2.122300    0.095700 C.3      1 SUBUNIT   -0.0532
      4 C4            2.048900    1.950300   -0.978900 C.3      1 SUBUNIT   -0.0532
      5 C5            2.593800    0.545000   -1.456200 C.3      1 SUBUNIT   -0.0532
      6 C6            3.141100   -0.437800   -0.385600 C.3      1 SUBUNIT   -0.0532
      7 C7            2.054800   -1.137200    0.592900 C.3      1 SUBUNIT   -0.0532
      8 C8            0.644500   -1.332700    0.041800 C.3      1 SUBUNIT   -0.0532
      9 H9           -0.373700   -0.004500    1.570100 H        1 SUBUNIT    0.0266
     10 H10          -1.383600   -0.617200    0.332700 H        1 SUBUNIT    0.0266
     11 H11          -0.613500    1.187900   -1.185100 H        1 SUBUNIT    0.0266
     12 H12          -1.182500    1.705800    0.333200 H        1 SUBUNIT    0.0266
     13 H13           0.726100    3.200800    0.180100 H        1 SUBUNIT    0.0266
     14 H14           1.400900    1.800000    1.087400 H        1 SUBUNIT    0.0266
     15 H15           1.792500    2.464800   -1.936700 H        1 SUBUNIT    0.0266
     16 H16           2.856200    2.678300   -0.721800 H        1 SUBUNIT    0.0266
     17 H17           1.840400   -0.040600   -2.028700 H        1 SUBUNIT    0.0266
     18 H18           3.521000    0.825800   -2.012200 H        1 SUBUNIT    0.0266
     19 H19           3.641900   -1.162000   -1.072900 H        1 SUBUNIT    0.0266
     20 H20           3.850000    0.114300    0.271000 H        1 SUBUNIT    0.0266
     21 H21           2.368600   -2.143900    0.961200 H        1 SUBUNIT    0.0266
     22 H22           1.975400   -0.554200    1.542500 H        1 SUBUNIT    0.0266
     23 H23           0.604100   -1.371600   -1.071300 H        1 SUBUNIT    0.0266
     24 H24           0.160900   -2.277900    0.391000 H        1 SUBUNIT    0.0266
@<TRIPOS>BOND
     1    1    2 1
     2    1    8 1
     3    1    9 1
     4    1   10 1
     5    2    3 1
     6    2   11 1
     7    2   12 1
     8    3    4 1
     9    3   13 1
    10    3   14 1
    11    4    5 1
    12    4   15 1
    13    4   16 1
    14    5    6 1
    15    5   17 1
    16    5   18 1
    17    6    7 1
    18    6   19 1
    19    6   20 1
    20    7    8 1
    21    7   21 1
    22    7   22 1
    23    8   23 1
    24    8   24 1
@<SCITEGIC>ATOM_PROPERTY
Formal Charge
SciTegic.value.StringValue
1 0
2 0
3 0
4 0
5 0
6 0
7 0
8 0
9 0
10 0
11 0
12 0
13 0
14 0
15 0
16 0
17 0
18 0
19 0
20 0
21 0
22 0
23 0
24 0

@<SCITEGIC>ATOM_PROPERTY
pdb_tempFactor
SciTegic.value.DoubleValue
1 0.00
2 0.00
3 0.00
4 0.00
5 0.00
6 0.00
7 0.00
8 0.00
9 0.00
10 0.00
11 0.00
12 0.00
13 0.00
14 0.00
15 0.00
16 0.00
17 0.00
18 0.00
19 0.00
20 0.00
21 0.00
22 0.00
23 0.00
24 0.00

@<SCITEGIC>ATOM_PROPERTY
pdb_occupancy
SciTegic.value.DoubleValue
1 1.00
2 1.00
3 1.00
4 1.00
5 1.00
6 1.00
7 1.00
8 1.00
9 1.00
10 1.00
11 1.00
12 1.00
13 1.00
14 1.00
15 1.00
16 1.00
17 1.00
18 1.00
19 1.00
20 1.00
21 1.00
22 1.00
23 1.00
24 1.00

#	copyright 2023 drugdesign.org
#	Creation time:	2024-01-11T10:58:47Z

@<TRIPOS>MOLECULE
cyclooctane.sd
   24    24     0 0 0
SMALL
USER_CHARGES


@<TRIPOS>ATOM
      1 C1           -0.388800   -0.184000    0.562700 C.3      1 SUBUNIT   -0.0532
      2 C2           -0.230400    1.109200   -0.297500 C.3      1 SUBUNIT   -0.0532
      3 C3            0.880400    2.041100    0.030700 C.3      1 SUBUNIT   -0.0532
      4 C4            2.231300    2.024600   -0.677100 C.3      1 SUBUNIT   -0.0532
      5 C5            2.479600    0.715600   -1.433400 C.3      1 SUBUNIT   -0.0532
      6 C6            2.957700   -0.613100   -0.657900 C.3      1 SUBUNIT   -0.0532
      7 C7            2.106500   -1.020800    0.587700 C.3      1 SUBUNIT   -0.0532
      8 C8            0.597600   -1.307200    0.246500 C.3      1 SUBUNIT   -0.0532
      9 H9           -0.338200    0.209700    1.604600 H        1 SUBUNIT    0.0266
     10 H10          -1.420300   -0.560400    0.353400 H        1 SUBUNIT    0.0266
     11 H11          -0.110400    0.813100   -1.365700 H        1 SUBUNIT    0.0266
     12 H12          -1.176700    1.661600   -0.076600 H        1 SUBUNIT    0.0266
     13 H13           0.573500    3.111700   -0.063500 H        1 SUBUNIT    0.0266
     14 H14           1.003000    2.174900    1.130400 H        1 SUBUNIT    0.0266
     15 H15           2.138500    2.738700   -1.531100 H        1 SUBUNIT    0.0266
     16 H16           3.039000    2.395500   -0.000500 H        1 SUBUNIT    0.0266
     17 H17           1.666700    0.308300   -2.075000 H        1 SUBUNIT    0.0266
     18 H18           3.313600    0.903000   -2.152400 H        1 SUBUNIT    0.0266
     19 H19           2.846800   -1.536800   -1.276200 H        1 SUBUNIT    0.0266
     20 H20           4.058600   -0.547800   -0.508900 H        1 SUBUNIT    0.0266
     21 H21           2.654400   -1.915000    0.972100 H        1 SUBUNIT    0.0266
     22 H22           2.256100   -0.244800    1.377200 H        1 SUBUNIT    0.0266
     23 H23           0.629400   -1.599900   -0.828500 H        1 SUBUNIT    0.0266
     24 H24           0.315000   -2.129100    0.949300 H        1 SUBUNIT    0.0266
@<TRIPOS>BOND
     1    1    2 1
     2    1    8 1
     3    1    9 1
     4    1   10 1
     5    2    3 1
     6    2   11 1
     7    2   12 1
     8    3    4 1
     9    3   13 1
    10    3   14 1
    11    4    5 1
    12    4   15 1
    13    4   16 1
    14    5    6 1
    15    5   17 1
    16    5   18 1
    17    6    7 1
    18    6   19 1
    19    6   20 1
    20    7    8 1
    21    7   21 1
    22    7   22 1
    23    8   23 1
    24    8   24 1
@<SCITEGIC>ATOM_PROPERTY
Formal Charge
SciTegic.value.StringValue
1 0
2 0
3 0
4 0
5 0
6 0
7 0
8 0
9 0
10 0
11 0
12 0
13 0
14 0
15 0
16 0
17 0
18 0
19 0
20 0
21 0
22 0
23 0
24 0

@<SCITEGIC>ATOM_PROPERTY
pdb_tempFactor
SciTegic.value.DoubleValue
1 0.00
2 0.00
3 0.00
4 0.00
5 0.00
6 0.00
7 0.00
8 0.00
9 0.00
10 0.00
11 0.00
12 0.00
13 0.00
14 0.00
15 0.00
16 0.00
17 0.00
18 0.00
19 0.00
20 0.00
21 0.00
22 0.00
23 0.00
24 0.00

@<SCITEGIC>ATOM_PROPERTY
pdb_occupancy
SciTegic.value.DoubleValue
1 1.00
2 1.00
3 1.00
4 1.00
5 1.00
6 1.00
7 1.00
8 1.00
9 1.00
10 1.00
11 1.00
12 1.00
13 1.00
14 1.00
15 1.00
16 1.00
17 1.00
18 1.00
19 1.00
20 1.00
21 1.00
22 1.00
23 1.00
24 1.00

#	copyright 2023 drugdesign.org
#	Creation time:	2024-01-11T10:58:47Z

@<TRIPOS>MOLECULE
cyclooctane.sd
   24    24     0 0 0
SMALL
USER_CHARGES


@<TRIPOS>ATOM
      1 C1           -0.362700   -0.168500    0.444200 C.3      1 SUBUNIT   -0.0532
      2 C2           -0.221800    1.190900   -0.285500 C.3      1 SUBUNIT   -0.0532
      3 C3            1.080500    1.980600    0.183100 C.3      1 SUBUNIT   -0.0532
      4 C4            2.084600    2.006300   -0.947800 C.3      1 SUBUNIT   -0.0532
      5 C5            2.482600    0.630800   -1.473100 C.3      1 SUBUNIT   -0.0532
      6 C6            3.048500   -0.414100   -0.480000 C.3      1 SUBUNIT   -0.0532
      7 C7            2.080800   -1.001600    0.603100 C.3      1 SUBUNIT   -0.0532
      8 C8            0.629000   -1.320700    0.169900 C.3      1 SUBUNIT   -0.0532
      9 H9           -0.457500   -0.111000    1.553600 H        1 SUBUNIT    0.0266
     10 H10          -1.354100   -0.538500    0.084100 H        1 SUBUNIT    0.0266
     11 H11          -0.236500    0.986600   -1.381400 H        1 SUBUNIT    0.0266
     12 H12          -1.076500    1.847900    0.010200 H        1 SUBUNIT    0.0266
     13 H13           0.751300    3.010300    0.467000 H        1 SUBUNIT    0.0266
     14 H14           1.402600    1.424800    1.093900 H        1 SUBUNIT    0.0266
     15 H15           1.749400    2.707600   -1.750100 H        1 SUBUNIT    0.0266
     16 H16           3.046900    2.442700   -0.585700 H        1 SUBUNIT    0.0266
     17 H17           1.657500    0.257300   -2.119600 H        1 SUBUNIT    0.0266
     18 H18           3.252400    0.922800   -2.228000 H        1 SUBUNIT    0.0266
     19 H19           3.354700   -1.363100   -0.983400 H        1 SUBUNIT    0.0266
     20 H20           3.816900    0.233400   -0.001700 H        1 SUBUNIT    0.0266
     21 H21           2.506100   -1.929800    1.056000 H        1 SUBUNIT    0.0266
     22 H22           2.092800   -0.418500    1.555800 H        1 SUBUNIT    0.0266
     23 H23           0.507700   -1.722800   -0.862400 H        1 SUBUNIT    0.0266
     24 H24           0.195400   -2.143800    0.789400 H        1 SUBUNIT    0.0266
@<TRIPOS>BOND
     1    1    2 1
     2    1    8 1
     3    1    9 1
     4    1   10 1
     5    2    3 1
     6    2   11 1
     7    2   12 1
     8    3    4 1
     9    3   13 1
    10    3   14 1
    11    4    5 1
    12    4   15 1
    13    4   16 1
    14    5    6 1
    15    5   17 1
    16    5   18 1
    17    6    7 1
    18    6   19 1
    19    6   20 1
    20    7    8 1
    21    7   21 1
    22    7   22 1
    23    8   23 1
    24    8   24 1
@<SCITEGIC>ATOM_PROPERTY
Formal Charge
SciTegic.value.StringValue
1 0
2 0
3 0
4 0
5 0
6 0
7 0
8 0
9 0
10 0
11 0
12 0
13 0
14 0
15 0
16 0
17 0
18 0
19 0
20 0
21 0
22 0
23 0
24 0

@<SCITEGIC>ATOM_PROPERTY
pdb_tempFactor
SciTegic.value.DoubleValue
1 0.00
2 0.00
3 0.00
4 0.00
5 0.00
6 0.00
7 0.00
8 0.00
9 0.00
10 0.00
11 0.00
12 0.00
13 0.00
14 0.00
15 0.00
16 0.00
17 0.00
18 0.00
19 0.00
20 0.00
21 0.00
22 0.00
23 0.00
24 0.00

@<SCITEGIC>ATOM_PROPERTY
pdb_occupancy
SciTegic.value.DoubleValue
1 1.00
2 1.00
3 1.00
4 1.00
5 1.00
6 1.00
7 1.00
8 1.00
9 1.00
10 1.00
11 1.00
12 1.00
13 1.00
14 1.00
15 1.00
16 1.00
17 1.00
18 1.00
19 1.00
20 1.00
21 1.00
22 1.00
23 1.00
24 1.00

#	copyright 2023 drugdesign.org
#	Creation time:	2024-01-11T10:58:47Z

@<TRIPOS>MOLECULE
cyclooctane.sd
   24    24     0 0 0
SMALL
USER_CHARGES


@<TRIPOS>ATOM
      1 C1           -0.420100   -0.193300    0.472900 C.3      1 SUBUNIT   -0.0532
      2 C2           -0.352800    1.261700   -0.136300 C.3      1 SUBUNIT   -0.0532
      3 C3            0.948400    1.966000    0.142900 C.3      1 SUBUNIT   -0.0532
      4 C4            2.068100    1.881500   -1.011000 C.3      1 SUBUNIT   -0.0532
      5 C5            2.651700    0.555500   -1.466700 C.3      1 SUBUNIT   -0.0532
      6 C6            3.088500   -0.341400   -0.300800 C.3      1 SUBUNIT   -0.0532
      7 C7            2.039700   -1.037100    0.584600 C.3      1 SUBUNIT   -0.0532
      8 C8            0.613900   -1.276200    0.059100 C.3      1 SUBUNIT   -0.0532
      9 H9           -0.196400   -0.046000    1.555200 H        1 SUBUNIT    0.0266
     10 H10          -1.478100   -0.531400    0.346900 H        1 SUBUNIT    0.0266
     11 H11          -0.709200    1.246300   -1.192600 H        1 SUBUNIT    0.0266
     12 H12          -1.116700    1.939500    0.318200 H        1 SUBUNIT    0.0266
     13 H13           0.789500    3.072400    0.145000 H        1 SUBUNIT    0.0266
     14 H14           1.410300    1.599400    1.088600 H        1 SUBUNIT    0.0266
     15 H15           1.484400    2.327900   -1.852300 H        1 SUBUNIT    0.0266
     16 H16           2.906200    2.569500   -0.742700 H        1 SUBUNIT    0.0266
     17 H17           1.794100    0.107100   -2.016100 H        1 SUBUNIT    0.0266
     18 H18           3.501800    0.676100   -2.181200 H        1 SUBUNIT    0.0266
     19 H19           3.788700   -1.116400   -0.697000 H        1 SUBUNIT    0.0266
     20 H20           3.984200    0.049600    0.231300 H        1 SUBUNIT    0.0266
     21 H21           2.513100   -2.026100    0.797400 H        1 SUBUNIT    0.0266
     22 H22           1.893800   -0.465400    1.533200 H        1 SUBUNIT    0.0266
     23 H23           0.708400   -1.399600   -1.044500 H        1 SUBUNIT    0.0266
     24 H24           0.170500   -2.285900    0.241400 H        1 SUBUNIT    0.0266
@<TRIPOS>BOND
     1    1    2 1
     2    1    8 1
     3    1    9 1
     4    1   10 1
     5    2    3 1
     6    2   11 1
     7    2   12 1
     8    3    4 1
     9    3   13 1
    10    3   14 1
    11    4    5 1
    12    4   15 1
    13    4   16 1
    14    5    6 1
    15    5   17 1
    16    5   18 1
    17    6    7 1
    18    6   19 1
    19    6   20 1
    20    7    8 1
    21    7   21 1
    22    7   22 1
    23    8   23 1
    24    8   24 1
@<SCITEGIC>ATOM_PROPERTY
Formal Charge
SciTegic.value.StringValue
1 0
2 0
3 0
4 0
5 0
6 0
7 0
8 0
9 0
10 0
11 0
12 0
13 0
14 0
15 0
16 0
17 0
18 0
19 0
20 0
21 0
22 0
23 0
24 0

@<SCITEGIC>ATOM_PROPERTY
pdb_tempFactor
SciTegic.value.DoubleValue
1 0.00
2 0.00
3 0.00
4 0.00
5 0.00
6 0.00
7 0.00
8 0.00
9 0.00
10 0.00
11 0.00
12 0.00
13 0.00
14 0.00
15 0.00
16 0.00
17 0.00
18 0.00
19 0.00
20 0.00
21 0.00
22 0.00
23 0.00
24 0.00

@<SCITEGIC>ATOM_PROPERTY
pdb_occupancy
SciTegic.value.DoubleValue
1 1.00
2 1.00
3 1.00
4 1.00
5 1.00
6 1.00
7 1.00
8 1.00
9 1.00
10 1.00
11 1.00
12 1.00
13 1.00
14 1.00
15 1.00
16 1.00
17 1.00
18 1.00
19 1.00
20 1.00
21 1.00
22 1.00
23 1.00
24 1.00

#	copyright 2023 drugdesign.org
#	Creation time:	2024-01-11T10:58:47Z

@<TRIPOS>MOLECULE
cyclooctane.sd
   24    24     0 0 0
SMALL
USER_CHARGES


@<TRIPOS>ATOM
      1 C1           -0.373700   -0.148200    0.646400 C.3      1 SUBUNIT   -0.0532
      2 C2           -0.338600    1.053300   -0.268400 C.3      1 SUBUNIT   -0.0532
      3 C3            0.858500    2.059500    0.019300 C.3      1 SUBUNIT   -0.0532
      4 C4            2.235500    1.895100   -0.727600 C.3      1 SUBUNIT   -0.0532
      5 C5            2.482500    0.558000   -1.479300 C.3      1 SUBUNIT   -0.0532
      6 C6            3.030700   -0.579200   -0.678200 C.3      1 SUBUNIT   -0.0532
      7 C7            2.172400   -0.891800    0.526900 C.3      1 SUBUNIT   -0.0532
      8 C8            0.694200   -1.200400    0.210500 C.3      1 SUBUNIT   -0.0532
      9 H9           -0.337600    0.156900    1.718100 H        1 SUBUNIT    0.0266
     10 H10          -1.398900   -0.559900    0.476400 H        1 SUBUNIT    0.0266
     11 H11          -0.141900    0.773900   -1.329700 H        1 SUBUNIT    0.0266
     12 H12          -1.257300    1.681400   -0.163500 H        1 SUBUNIT    0.0266
     13 H13           0.500900    3.114900   -0.068000 H        1 SUBUNIT    0.0266
     14 H14           0.992000    1.919300    1.116900 H        1 SUBUNIT    0.0266
     15 H15           2.374000    2.752200   -1.430500 H        1 SUBUNIT    0.0266
     16 H16           2.975800    1.911200    0.108700 H        1 SUBUNIT    0.0266
     17 H17           1.642800    0.455600   -2.202300 H        1 SUBUNIT    0.0266
     18 H18           3.222000    0.814300   -2.276300 H        1 SUBUNIT    0.0266
     19 H19           3.106300   -1.443600   -1.381700 H        1 SUBUNIT    0.0266
     20 H20           4.004700   -0.336100   -0.197900 H        1 SUBUNIT    0.0266
     21 H21           2.500100   -1.754200    1.156600 H        1 SUBUNIT    0.0266
     22 H22           2.174500   -0.066900    1.280100 H        1 SUBUNIT    0.0266
     23 H23           0.609500   -1.484200   -0.864000 H        1 SUBUNIT    0.0266
     24 H24           0.318700   -2.127700    0.709100 H        1 SUBUNIT    0.0266
@<TRIPOS>BOND
     1    1    2 1
     2    1    8 1
     3    1    9 1
     4    1   10 1
     5    2    3 1
     6    2   11 1
     7    2   12 1
     8    3    4 1
     9    3   13 1
    10    3   14 1
    11    4    5 1
    12    4   15 1
    13    4   16 1
    14    5    6 1
    15    5   17 1
    16    5   18 1
    17    6    7 1
    18    6   19 1
    19    6   20 1
    20    7    8 1
    21    7   21 1
    22    7   22 1
    23    8   23 1
    24    8   24 1
@<SCITEGIC>ATOM_PROPERTY
Formal Charge
SciTegic.value.StringValue
1 0
2 0
3 0
4 0
5 0
6 0
7 0
8 0
9 0
10 0
11 0
12 0
13 0
14 0
15 0
16 0
17 0
18 0
19 0
20 0
21 0
22 0
23 0
24 0

@<SCITEGIC>ATOM_PROPERTY
pdb_tempFactor
SciTegic.value.DoubleValue
1 0.00
2 0.00
3 0.00
4 0.00
5 0.00
6 0.00
7 0.00
8 0.00
9 0.00
10 0.00
11 0.00
12 0.00
13 0.00
14 0.00
15 0.00
16 0.00
17 0.00
18 0.00
19 0.00
20 0.00
21 0.00
22 0.00
23 0.00
24 0.00

@<SCITEGIC>ATOM_PROPERTY
pdb_occupancy
SciTegic.value.DoubleValue
1 1.00
2 1.00
3 1.00
4 1.00
5 1.00
6 1.00
7 1.00
8 1.00
9 1.00
10 1.00
11 1.00
12 1.00
13 1.00
14 1.00
15 1.00
16 1.00
17 1.00
18 1.00
19 1.00
20 1.00
21 1.00
22 1.00
23 1.00
24 1.00

#	copyright 2023 drugdesign.org
#	Creation time:	2024-01-11T10:58:47Z

@<TRIPOS>MOLECULE
cyclooctane.sd
   24    24     0 0 0
SMALL
USER_CHARGES


@<TRIPOS>ATOM
      1 C1           -0.480500   -0.148500    0.458200 C.3      1 SUBUNIT   -0.0532
      2 C2           -0.183400    1.180600   -0.249100 C.3      1 SUBUNIT   -0.0532
      3 C3            1.062500    1.907800    0.249000 C.3      1 SUBUNIT   -0.0532
      4 C4            2.087900    1.962900   -0.931400 C.3      1 SUBUNIT   -0.0532
      5 C5            2.473500    0.637500   -1.481400 C.3      1 SUBUNIT   -0.0532
      6 C6            3.023200   -0.325500   -0.425100 C.3      1 SUBUNIT   -0.0532
      7 C7            2.066700   -1.041100    0.603900 C.3      1 SUBUNIT   -0.0532
      8 C8            0.567700   -1.230400    0.139200 C.3      1 SUBUNIT   -0.0532
      9 H9           -0.668000   -0.004100    1.547700 H        1 SUBUNIT    0.0266
     10 H10          -1.430300   -0.579200    0.055700 H        1 SUBUNIT    0.0266
     11 H11          -0.216800    1.058900   -1.356800 H        1 SUBUNIT    0.0266
     12 H12          -1.077400    1.801900    0.004400 H        1 SUBUNIT    0.0266
     13 H13           0.820000    2.985700    0.418200 H        1 SUBUNIT    0.0266
     14 H14           1.483100    1.552300    1.217900 H        1 SUBUNIT    0.0266
     15 H15           1.615200    2.476700   -1.803400 H        1 SUBUNIT    0.0266
     16 H16           2.969800    2.600300   -0.679300 H        1 SUBUNIT    0.0266
     17 H17           1.652100    0.197900   -2.089900 H        1 SUBUNIT    0.0266
     18 H18           3.309500    0.748500   -2.213800 H        1 SUBUNIT    0.0266
     19 H19           3.559200   -1.095300   -1.031600 H        1 SUBUNIT    0.0266
     20 H20           3.929300    0.064700    0.089700 H        1 SUBUNIT    0.0266
     21 H21           2.408200   -2.044100    0.957300 H        1 SUBUNIT    0.0266
     22 H22           2.290000   -0.572000    1.592800 H        1 SUBUNIT    0.0266
     23 H23           0.572100   -1.515000   -0.938400 H        1 SUBUNIT    0.0266
     24 H24           0.254200   -2.121700    0.736300 H        1 SUBUNIT    0.0266
@<TRIPOS>BOND
     1    1    2 1
     2    1    8 1
     3    1    9 1
     4    1   10 1
     5    2    3 1
     6    2   11 1
     7    2   12 1
     8    3    4 1
     9    3   13 1
    10    3   14 1
    11    4    5 1
    12    4   15 1
    13    4   16 1
    14    5    6 1
    15    5   17 1
    16    5   18 1
    17    6    7 1
    18    6   19 1
    19    6   20 1
    20    7    8 1
    21    7   21 1
    22    7   22 1
    23    8   23 1
    24    8   24 1
@<SCITEGIC>ATOM_PROPERTY
Formal Charge
SciTegic.value.StringValue
1 0
2 0
3 0
4 0
5 0
6 0
7 0
8 0
9 0
10 0
11 0
12 0
13 0
14 0
15 0
16 0
17 0
18 0
19 0
20 0
21 0
22 0
23 0
24 0

@<SCITEGIC>ATOM_PROPERTY
pdb_tempFactor
SciTegic.value.DoubleValue
1 0.00
2 0.00
3 0.00
4 0.00
5 0.00
6 0.00
7 0.00
8 0.00
9 0.00
10 0.00
11 0.00
12 0.00
13 0.00
14 0.00
15 0.00
16 0.00
17 0.00
18 0.00
19 0.00
20 0.00
21 0.00
22 0.00
23 0.00
24 0.00

@<SCITEGIC>ATOM_PROPERTY
pdb_occupancy
SciTegic.value.DoubleValue
1 1.00
2 1.00
3 1.00
4 1.00
5 1.00
6 1.00
7 1.00
8 1.00
9 1.00
10 1.00
11 1.00
12 1.00
13 1.00
14 1.00
15 1.00
16 1.00
17 1.00
18 1.00
19 1.00
20 1.00
21 1.00
22 1.00
23 1.00
24 1.00

#	copyright 2023 drugdesign.org
#	Creation time:	2024-01-11T10:58:47Z

@<TRIPOS>MOLECULE
cyclooctane.sd
   24    24     0 0 0
SMALL
USER_CHARGES


@<TRIPOS>ATOM
      1 C1           -0.414800   -0.155500    0.522200 C.3      1 SUBUNIT   -0.0532
      2 C2           -0.268300    1.180900   -0.286300 C.3      1 SUBUNIT   -0.0532
      3 C3            0.981100    1.938100    0.155200 C.3      1 SUBUNIT   -0.0532
      4 C4            2.117700    1.967600   -0.867300 C.3      1 SUBUNIT   -0.0532
      5 C5            2.503500    0.591000   -1.582300 C.3      1 SUBUNIT   -0.0532
      6 C6            3.031300   -0.425300   -0.507600 C.3      1 SUBUNIT   -0.0532
      7 C7            2.122600   -0.979600    0.581500 C.3      1 SUBUNIT   -0.0532
      8 C8            0.626200   -1.297200    0.259400 C.3      1 SUBUNIT   -0.0532
      9 H9           -0.521500    0.025300    1.617200 H        1 SUBUNIT    0.0266
     10 H10          -1.419900   -0.585500    0.289200 H        1 SUBUNIT    0.0266
     11 H11          -0.236600    1.071900   -1.395400 H        1 SUBUNIT    0.0266
     12 H12          -1.224000    1.755200   -0.205700 H        1 SUBUNIT    0.0266
     13 H13           0.830800    3.032100    0.328400 H        1 SUBUNIT    0.0266
     14 H14           1.317800    1.611500    1.166200 H        1 SUBUNIT    0.0266
     15 H15           1.776400    2.733600   -1.605200 H        1 SUBUNIT    0.0266
     16 H16           3.085200    2.376900   -0.488000 H        1 SUBUNIT    0.0266
     17 H17           1.639500    0.204600   -2.167600 H        1 SUBUNIT    0.0266
     18 H18           3.334300    0.908700   -2.258000 H        1 SUBUNIT    0.0266
     19 H19           3.265300   -1.372300   -1.051900 H        1 SUBUNIT    0.0266
     20 H20           3.954200   -0.032900   -0.025400 H        1 SUBUNIT    0.0266
     21 H21           2.526500   -1.920300    1.028200 H        1 SUBUNIT    0.0266
     22 H22           2.134400   -0.351500    1.505200 H        1 SUBUNIT    0.0266
     23 H23           0.558700   -1.470000   -0.839600 H        1 SUBUNIT    0.0266
     24 H24           0.344500   -2.274700    0.722400 H        1 SUBUNIT    0.0266
@<TRIPOS>BOND
     1    1    2 1
     2    1    8 1
     3    1    9 1
     4    1   10 1
     5    2    3 1
     6    2   11 1
     7    2   12 1
     8    3    4 1
     9    3   13 1
    10    3   14 1
    11    4    5 1
    12    4   15 1
    13    4   16 1
    14    5    6 1
    15    5   17 1
    16    5   18 1
    17    6    7 1
    18    6   19 1
    19    6   20 1
    20    7    8 1
    21    7   21 1
    22    7   22 1
    23    8   23 1
    24    8   24 1
@<SCITEGIC>ATOM_PROPERTY
Formal Charge
SciTegic.value.StringValue
1 0
2 0
3 0
4 0
5 0
6 0
7 0
8 0
9 0
10 0
11 0
12 0
13 0
14 0
15 0
16 0
17 0
18 0
19 0
20 0
21 0
22 0
23 0
24 0

@<SCITEGIC>ATOM_PROPERTY
pdb_tempFactor
SciTegic.value.DoubleValue
1 0.00
2 0.00
3 0.00
4 0.00
5 0.00
6 0.00
7 0.00
8 0.00
9 0.00
10 0.00
11 0.00
12 0.00
13 0.00
14 0.00
15 0.00
16 0.00
17 0.00
18 0.00
19 0.00
20 0.00
21 0.00
22 0.00
23 0.00
24 0.00

@<SCITEGIC>ATOM_PROPERTY
pdb_occupancy
SciTegic.value.DoubleValue
1 1.00
2 1.00
3 1.00
4 1.00
5 1.00
6 1.00
7 1.00
8 1.00
9 1.00
10 1.00
11 1.00
12 1.00
13 1.00
14 1.00
15 1.00
16 1.00
17 1.00
18 1.00
19 1.00
20 1.00
21 1.00
22 1.00
23 1.00
24 1.00

#	copyright 2023 drugdesign.org
#	Creation time:	2024-01-11T10:58:47Z

@<TRIPOS>MOLECULE
cyclooctane.sd
   24    24     0 0 0
SMALL
USER_CHARGES


@<TRIPOS>ATOM
      1 C1           -0.315300   -0.114600    0.546500 C.3      1 SUBUNIT   -0.0532
      2 C2           -0.338000    1.110400   -0.298700 C.3      1 SUBUNIT   -0.0532
      3 C3            0.853000    2.083900    0.068500 C.3      1 SUBUNIT   -0.0532
      4 C4            2.177200    1.928700   -0.768300 C.3      1 SUBUNIT   -0.0532
      5 C5            2.489400    0.567800   -1.440000 C.3      1 SUBUNIT   -0.0532
      6 C6            3.032500   -0.511800   -0.506900 C.3      1 SUBUNIT   -0.0532
      7 C7            2.050800   -0.967800    0.549300 C.3      1 SUBUNIT   -0.0532
      8 C8            0.611500   -1.224100    0.077500 C.3      1 SUBUNIT   -0.0532
      9 H9           -0.058500    0.100900    1.609800 H        1 SUBUNIT    0.0266
     10 H10          -1.304000   -0.629800    0.627700 H        1 SUBUNIT    0.0266
     11 H11          -0.457000    0.874300   -1.381800 H        1 SUBUNIT    0.0266
     12 H12          -1.286600    1.643300   -0.042500 H        1 SUBUNIT    0.0266
     13 H13           0.439100    3.121700    0.037800 H        1 SUBUNIT    0.0266
     14 H14           1.306200    2.066100    1.086600 H        1 SUBUNIT    0.0266
     15 H15           2.117300    2.649800   -1.619300 H        1 SUBUNIT    0.0266
     16 H16           3.077900    2.141800   -0.143100 H        1 SUBUNIT    0.0266
     17 H17           1.748400    0.072200   -2.106000 H        1 SUBUNIT    0.0266
     18 H18           3.348200    0.843000   -2.099000 H        1 SUBUNIT    0.0266
     19 H19           3.323300   -1.400300   -1.118300 H        1 SUBUNIT    0.0266
     20 H20           3.927100   -0.078100   -0.007100 H        1 SUBUNIT    0.0266
     21 H21           2.459800   -1.958600    0.863400 H        1 SUBUNIT    0.0266
     22 H22           2.118800   -0.251200    1.403600 H        1 SUBUNIT    0.0266
     23 H23           0.456900   -1.370700   -1.016500 H        1 SUBUNIT    0.0266
     24 H24           0.325500   -2.178200    0.584700 H        1 SUBUNIT    0.0266
@<TRIPOS>BOND
     1    1    2 1
     2    1    8 1
     3    1    9 1
     4    1   10 1
     5    2    3 1
     6    2   11 1
     7    2   12 1
     8    3    4 1
     9    3   13 1
    10    3   14 1
    11    4    5 1
    12    4   15 1
    13    4   16 1
    14    5    6 1
    15    5   17 1
    16    5   18 1
    17    6    7 1
    18    6   19 1
    19    6   20 1
    20    7    8 1
    21    7   21 1
    22    7   22 1
    23    8   23 1
    24    8   24 1
@<SCITEGIC>ATOM_PROPERTY
Formal Charge
SciTegic.value.StringValue
1 0
2 0
3 0
4 0
5 0
6 0
7 0
8 0
9 0
10 0
11 0
12 0
13 0
14 0
15 0
16 0
17 0
18 0
19 0
20 0
21 0
22 0
23 0
24 0

@<SCITEGIC>ATOM_PROPERTY
pdb_tempFactor
SciTegic.value.DoubleValue
1 0.00
2 0.00
3 0.00
4 0.00
5 0.00
6 0.00
7 0.00
8 0.00
9 0.00
10 0.00
11 0.00
12 0.00
13 0.00
14 0.00
15 0.00
16 0.00
17 0.00
18 0.00
19 0.00
20 0.00
21 0.00
22 0.00
23 0.00
24 0.00

@<SCITEGIC>ATOM_PROPERTY
pdb_occupancy
SciTegic.value.DoubleValue
1 1.00
2 1.00
3 1.00
4 1.00
5 1.00
6 1.00
7 1.00
8 1.00
9 1.00
10 1.00
11 1.00
12 1.00
13 1.00
14 1.00
15 1.00
16 1.00
17 1.00
18 1.00
19 1.00
20 1.00
21 1.00
22 1.00
23 1.00
24 1.00

#	copyright 2023 drugdesign.org
#	Creation time:	2024-01-11T10:58:47Z

@<TRIPOS>MOLECULE
cyclooctane.sd
   24    24     0 0 0
SMALL
USER_CHARGES


@<TRIPOS>ATOM
      1 C1           -0.315300   -0.114600    0.546500 C.3      1 SUBUNIT   -0.0532
      2 C2           -0.338000    1.110400   -0.298700 C.3      1 SUBUNIT   -0.0532
      3 C3            0.853000    2.083900    0.068500 C.3      1 SUBUNIT   -0.0532
      4 C4            2.177200    1.928700   -0.768300 C.3      1 SUBUNIT   -0.0532
      5 C5            2.489400    0.567800   -1.440000 C.3      1 SUBUNIT   -0.0532
      6 C6            3.032500   -0.511800   -0.506900 C.3      1 SUBUNIT   -0.0532
      7 C7            2.050800   -0.967800    0.549300 C.3      1 SUBUNIT   -0.0532
      8 C8            0.611500   -1.224100    0.077500 C.3      1 SUBUNIT   -0.0532
      9 H9           -0.058500    0.100900    1.609800 H        1 SUBUNIT    0.0266
     10 H10          -1.304000   -0.629800    0.627700 H        1 SUBUNIT    0.0266
     11 H11          -0.457000    0.874300   -1.381800 H        1 SUBUNIT    0.0266
     12 H12          -1.286600    1.643300   -0.042500 H        1 SUBUNIT    0.0266
     13 H13           0.439100    3.121700    0.037800 H        1 SUBUNIT    0.0266
     14 H14           1.306200    2.066100    1.086600 H        1 SUBUNIT    0.0266
     15 H15           2.117300    2.649800   -1.619300 H        1 SUBUNIT    0.0266
     16 H16           3.077900    2.141800   -0.143100 H        1 SUBUNIT    0.0266
     17 H17           1.748400    0.072200   -2.106000 H        1 SUBUNIT    0.0266
     18 H18           3.348200    0.843000   -2.099000 H        1 SUBUNIT    0.0266
     19 H19           3.323300   -1.400300   -1.118300 H        1 SUBUNIT    0.0266
     20 H20           3.927100   -0.078100   -0.007100 H        1 SUBUNIT    0.0266
     21 H21           2.459800   -1.958600    0.863400 H        1 SUBUNIT    0.0266
     22 H22           2.118800   -0.251200    1.403600 H        1 SUBUNIT    0.0266
     23 H23           0.456900   -1.370700   -1.016500 H        1 SUBUNIT    0.0266
     24 H24           0.325500   -2.178200    0.584700 H        1 SUBUNIT    0.0266
@<TRIPOS>BOND
     1    1    2 1
     2    1    8 1
     3    1    9 1
     4    1   10 1
     5    2    3 1
     6    2   11 1
     7    2   12 1
     8    3    4 1
     9    3   13 1
    10    3   14 1
    11    4    5 1
    12    4   15 1
    13    4   16 1
    14    5    6 1
    15    5   17 1
    16    5   18 1
    17    6    7 1
    18    6   19 1
    19    6   20 1
    20    7    8 1
    21    7   21 1
    22    7   22 1
    23    8   23 1
    24    8   24 1
@<SCITEGIC>ATOM_PROPERTY
Formal Charge
SciTegic.value.StringValue
1 0
2 0
3 0
4 0
5 0
6 0
7 0
8 0
9 0
10 0
11 0
12 0
13 0
14 0
15 0
16 0
17 0
18 0
19 0
20 0
21 0
22 0
23 0
24 0

@<SCITEGIC>ATOM_PROPERTY
pdb_tempFactor
SciTegic.value.DoubleValue
1 0.00
2 0.00
3 0.00
4 0.00
5 0.00
6 0.00
7 0.00
8 0.00
9 0.00
10 0.00
11 0.00
12 0.00
13 0.00
14 0.00
15 0.00
16 0.00
17 0.00
18 0.00
19 0.00
20 0.00
21 0.00
22 0.00
23 0.00
24 0.00

@<SCITEGIC>ATOM_PROPERTY
pdb_occupancy
SciTegic.value.DoubleValue
1 1.00
2 1.00
3 1.00
4 1.00
5 1.00
6 1.00
7 1.00
8 1.00
9 1.00
10 1.00
11 1.00
12 1.00
13 1.00
14 1.00
15 1.00
16 1.00
17 1.00
18 1.00
19 1.00
20 1.00
21 1.00
22 1.00
23 1.00
24 1.00

